<?xml version="1.0" encoding="UTF-8"?>

<!-- generated on 2024-02-21 09:21:24 by Eclipse SUMO sumo Version 1.19.0
-->

<configuration xmlns:xsi="http://www.w3.org/2001/XMLSchema-instance" xsi:noNamespaceSchemaLocation="http://sumo.dlr.de/xsd/sumoConfiguration.xsd">

    <input>
        <net-file value="helloWorld.net.xml"/>
        <route-files value="helloWorld.rou.xml"/>
    </input>

</configuration>
