<?xml version="1.0" encoding="UTF-8"?>

<!-- generated on 2024-02-25 21:32:19.061014 by randomTrips.py UNKNOWN
<configuration>
    <net-file value="cenary.net.xml"/>
    <output-trip-file value="odtrips.car.xml"/>
    <route-file value="cenary.car.rou.xml"/>
    <prefix value="car"/>
    <trip-attributes value="color=&quot;0,0,1&quot;"/>
    <period value="0.5"/>
</configuration>
-->

<!-- generated on 2024-02-25 21:32:16 by Eclipse SUMO duarouter Version 1.19.0
<configuration xmlns:xsi="http://www.w3.org/2001/XMLSchema-instance" xsi:noNamespaceSchemaLocation="http://sumo.dlr.de/xsd/duarouterConfiguration.xsd">

    <input>
        <net-file value="cenary.net.xml"/>
        <route-files value="odtrips.car.xml"/>
    </input>

    <output>
        <output-file value="cenary.car.rou.xml"/>
        <alternatives-output value="NUL"/>
    </output>

    <time>
        <begin value="0"/>
        <end value="3600"/>
    </time>

    <report>
        <no-warnings value="true"/>
        <ignore-errors value="true"/>
        <no-step-log value="true"/>
    </report>

</configuration>
-->

<routes xmlns:xsi="http://www.w3.org/2001/XMLSchema-instance" xsi:noNamespaceSchemaLocation="http://sumo.dlr.de/xsd/routes_file.xsd">
    <vehicle id="car0" depart="0.00" color="blue">
        <route edges="J3I3 I3H3 H3G3 G3F3 F3E3 E3D3 D3C3 C3B3 B3A3 A3A2 A2B2"/>
    </vehicle>
    <vehicle id="car1" depart="0.50" color="blue">
        <route edges="E12F12 F12F11 F11F10 F10F9 F9F8 F8F7 F7F6 F6F5 F5F4 F4F3 F3F2 F2E2 E2D2 D2D3"/>
    </vehicle>
    <vehicle id="car2" depart="1.00" color="blue">
        <route edges="K8L8 L8K8 K8K9 K9K10 K10J10"/>
    </vehicle>
    <vehicle id="car3" depart="1.50" color="blue">
        <route edges="N11O11 O11O10 O10O9 O9O8 O8O7 O7O6 O6O5 O5O4 O4O3 O3N3 N3M3 M3L3 L3K3 K3J3 J3I3 I3H3 H3G3 G3F3 F3E3 E3D3 D3C3 C3B3 B3A3"/>
    </vehicle>
    <vehicle id="car4" depart="2.00" color="blue">
        <route edges="G14H14 H14H13 H13H12 H12H11 H11H10 H10H9 H9H8 H8H7 H7H6 H6H5 H5H4 H4G4 G4F4 F4E4 E4D4 D4C4 C4B4 B4A4 A4A3"/>
    </vehicle>
    <vehicle id="car5" depart="2.50" color="blue">
        <route edges="D1D2 D2D3 D3E3 E3F3 F3G3 G3H3 H3I3"/>
    </vehicle>
    <vehicle id="car6" depart="3.00" color="blue">
        <route edges="A3A2 A2A3 A3A4 A4A5 A5A6 A6A7 A7A8 A8A9 A9A10 A10A11 A11B11 B11C11 C11D11 D11D10"/>
    </vehicle>
    <vehicle id="car7" depart="3.50" color="blue">
        <route edges="J5I5 I5I6 I6I7 I7I8 I8I9 I9I10 I10I11 I11I10"/>
    </vehicle>
    <vehicle id="car8" depart="4.00" color="blue">
        <route edges="D2C2 C2C3 C3C4 C4C5 C5C6 C6D6 D6E6 E6F6 F6G6 G6H6 H6I6 I6J6"/>
    </vehicle>
    <vehicle id="car9" depart="4.50" color="blue">
        <route edges="L9L8 L8K8 K8J8 J8I8 I8H8 H8G8 G8F8 F8E8 E8D8 D8C8 C8B8 B8A8 A8A9 A9A10 A10A11 A11A10"/>
    </vehicle>
    <vehicle id="car10" depart="5.00" color="blue">
        <route edges="L8M8 M8L8 L8K8 K8K9 K9K10 K10K11 K11K12 K12K13 K13K14 K14L14"/>
    </vehicle>
    <vehicle id="car11" depart="5.50" color="blue">
        <route edges="F11G11 G11G10 G10G9 G9G8 G8G7 G7G6 G6G5 G5G4 G4G3 G3G2 G2F2 F2E2 E2D2 D2C2 C2D2"/>
    </vehicle>
    <vehicle id="car12" depart="6.00" color="blue">
        <route edges="O11O12 O12O11 O11N11 N11M11 M11L11 L11K11 K11J11 J11I11 I11H11 H11G11 G11F11 F11E11"/>
    </vehicle>
    <vehicle id="car13" depart="6.50" color="blue">
        <route edges="B4A4 A4A5 A5B5 B5A5"/>
    </vehicle>
    <vehicle id="car14" depart="7.00" color="blue">
        <route edges="M3L3 L3K3 K3J3 J3J2 J2J1 J1J0 J0I0"/>
    </vehicle>
    <vehicle id="car15" depart="7.50" color="blue">
        <route edges="L9K9 K9K8 K8K7 K7K6"/>
    </vehicle>
    <vehicle id="car16" depart="8.00" color="blue">
        <route edges="I0I1 I1I2 I2J2 J2K2 K2L2 L2M2 M2N2 N2O2 O2O1"/>
    </vehicle>
    <vehicle id="car17" depart="8.50" color="blue">
        <route edges="F6E6 E6E7 E7E8 E8E9 E9E10 E10E11 E11E12 E12F12 F12G12 G12H12 H12I12 I12J12"/>
    </vehicle>
    <vehicle id="car18" depart="9.00" color="blue">
        <route edges="M13L13 L13K13 K13J13 J13J12 J12J11"/>
    </vehicle>
    <vehicle id="car19" depart="9.50" color="blue">
        <route edges="M6L6 L6K6 K6J6 J6I6 I6I5 I5I4 I4I3"/>
    </vehicle>
    <vehicle id="car20" depart="10.00" color="blue">
        <route edges="K2J2 J2I2 I2H2 H2G2 G2F2 F2E2 E2D2 D2C2 C2B2 B2A2 A2A3 A3A4 A4A5 A5A6 A6A7 A7A8 A8A9"/>
    </vehicle>
    <vehicle id="car21" depart="10.50" color="blue">
        <route edges="D3D4 D4E4 E4E3 E3E2 E2D2"/>
    </vehicle>
    <vehicle id="car22" depart="11.00" color="blue">
        <route edges="B1B2 B2C2 C2D2 D2D3 D3D4 D4D5"/>
    </vehicle>
    <vehicle id="car23" depart="11.50" color="blue">
        <route edges="B5C5 C5D5 D5D6 D6D7 D7D8 D8D9 D9D10 D10D11 D11D12 D12D13 D13E13 E13E12"/>
    </vehicle>
    <vehicle id="car24" depart="12.00" color="blue">
        <route edges="J2I2 I2H2 H2G2 G2F2 F2F3 F3F2"/>
    </vehicle>
    <vehicle id="car25" depart="12.50" color="blue">
        <route edges="F4F3 F3E3 E3D3 D3D4 D4D5 D5D6 D6D7 D7D8 D8D9 D9D10 D10D11 D11D12 D12D13 D13D12"/>
    </vehicle>
    <vehicle id="car26" depart="13.00" color="blue">
        <route edges="E11D11 D11E11 E11F11 F11G11 G11H11 H11I11 I11J11 J11K11 K11L11 L11M11 M11N11 N11N10 N10N9 N9N8 N8N7 N7N6"/>
    </vehicle>
    <vehicle id="car27" depart="13.50" color="blue">
        <route edges="J4K4 K4J4 J4J5 J5J6 J6J7 J7J8 J8J9 J9J10 J10J11"/>
    </vehicle>
    <vehicle id="car28" depart="14.00" color="blue">
        <route edges="C6B6 B6B7 B7C7 C7D7 D7E7 E7F7 F7G7 G7H7 H7I7 I7J7 J7K7 K7K6"/>
    </vehicle>
    <vehicle id="car29" depart="14.50" color="blue">
        <route edges="C4C5 C5C6 C6D6 D6E6 E6F6 F6F5"/>
    </vehicle>
    <vehicle id="car30" depart="15.00" color="blue">
        <route edges="O7N7 N7M7 M7L7 L7K7 K7J7 J7J6 J6J5 J5J4 J4J3 J3I3"/>
    </vehicle>
    <vehicle id="car31" depart="15.50" color="blue">
        <route edges="I13J13 J13J12 J12J11 J11K11 K11L11"/>
    </vehicle>
    <vehicle id="car32" depart="16.00" color="blue">
        <route edges="M2L2 L2L3"/>
    </vehicle>
    <vehicle id="car33" depart="16.50" color="blue">
        <route edges="D3E3 E3D3 D3C3 C3B3 B3A3 A3A4 A4A5"/>
    </vehicle>
    <vehicle id="car34" depart="17.00" color="blue">
        <route edges="E7E6 E6E7 E7E8 E8E9 E9E10 E10E11 E11D11"/>
    </vehicle>
    <vehicle id="car35" depart="17.50" color="blue">
        <route edges="D13E13 E13F13 F13G13 G13G12 G12G11 G11G10 G10G9 G9G8 G8H8 H8I8 I8J8 J8K8 K8L8 L8M8 M8N8 N8O8"/>
    </vehicle>
    <vehicle id="car36" depart="18.00" color="blue">
        <route edges="M9M10 M10M9 M9M8 M8M7 M7L7 L7K7 K7J7 J7I7 I7H7 H7G7 G7F7 F7E7 E7E6"/>
    </vehicle>
    <vehicle id="car37" depart="18.50" color="blue">
        <route edges="J6J5 J5I5 I5H5 H5G5 G5F5 F5F6 F6F7 F7F8 F8F9 F9G9"/>
    </vehicle>
    <vehicle id="car38" depart="19.00" color="blue">
        <route edges="N2O2 O2N2 N2M2 M2L2 L2K2 K2J2 J2I2 I2H2 H2G2 G2G3 G3G4 G4G5 G5G6 G6G7 G7G8 G8G9"/>
    </vehicle>
    <vehicle id="car39" depart="19.50" color="blue">
        <route edges="E10E9 E9E8 E8E7 E7D7 D7D8"/>
    </vehicle>
    <vehicle id="car40" depart="20.00" color="blue">
        <route edges="I1H1 H1G1 G1F1 F1E1 E1E2 E2E3 E3E4 E4E5 E5E6 E6E7 E7E8 E8E9 E9E10 E10D10"/>
    </vehicle>
    <vehicle id="car41" depart="20.50" color="blue">
        <route edges="I6H6 H6H7 H7H8 H8H9 H9H10 H10H11 H11H12 H12H13 H13I13 I13J13 J13K13 K13L13 L13M13 M13N13 N13M13"/>
    </vehicle>
    <vehicle id="car42" depart="21.00" color="blue">
        <route edges="G0H0 H0G0 G0F0 F0E0 E0D0 D0D1 D1E1"/>
    </vehicle>
    <vehicle id="car43" depart="21.50" color="blue">
        <route edges="O9N9 N9M9 M9L9 L9K9 K9J9 J9I9 I9I8 I8I7 I7I6 I6I5 I5I4 I4H4 H4I4"/>
    </vehicle>
    <vehicle id="car44" depart="22.00" color="blue">
        <route edges="B3C3 C3B3 B3A3 A3A4 A4A5 A5A6 A6A7 A7A8 A8B8"/>
    </vehicle>
    <vehicle id="car45" depart="22.50" color="blue">
        <route edges="B7C7 C7D7 D7E7 E7F7 F7G7 G7H7 H7I7 I7I8 I8I9 I9I10 I10I11 I11I12 I12I13 I13I14 I14J14 J14J13"/>
    </vehicle>
    <vehicle id="car46" depart="23.00" color="blue">
        <route edges="L6K6 K6J6 J6I6 I6H6 H6G6 G6G7 G7G8 G8G9 G9G10 G10G11 G11G12 G12G13 G13G14 G14H14"/>
    </vehicle>
    <vehicle id="car47" depart="23.50" color="blue">
        <route edges="B11C11 C11D11 D11E11 E11E10 E10E9 E9E8 E8E7 E7E6 E6F6 F6G6"/>
    </vehicle>
    <vehicle id="car48" depart="24.00" color="blue">
        <route edges="O8O9 O9O8 O8N8 N8M8 M8L8 L8K8 K8J8 J8I8 I8H8 H8I8"/>
    </vehicle>
    <vehicle id="car49" depart="24.50" color="blue">
        <route edges="O1O2 O2O3 O3O4 O4O5 O5O6 O6N6 N6M6 M6L6"/>
    </vehicle>
    <vehicle id="car50" depart="25.00" color="blue">
        <route edges="A12A13 A13B13 B13C13 C13D13 D13E13 E13F13 F13G13 G13H13 H13I13 I13J13 J13K13 K13K12 K12K11 K11K10 K10K9 K9K8 K8K7 K7K6 K6K5 K5K6"/>
    </vehicle>
    <vehicle id="car51" depart="25.50" color="blue">
        <route edges="K11J11 J11I11 I11I10 I10I9 I9I8 I8I7 I7I6 I6I5 I5I4 I4I3 I3I2 I2I1 I1I0 I0J0"/>
    </vehicle>
    <vehicle id="car52" depart="26.00" color="blue">
        <route edges="E11D11 D11E11 E11F11 F11G11 G11H11 H11I11 I11J11 J11J10 J10J9 J9J8 J8J7 J7J6 J6J5 J5J4 J4J3 J3J2"/>
    </vehicle>
    <vehicle id="car53" depart="26.50" color="blue">
        <route edges="B8A8 A8B8 B8C8 C8D8 D8E8 E8F8 F8G8 G8G7 G7G6 G6G5 G5G4 G4G3 G3G4"/>
    </vehicle>
    <vehicle id="car54" depart="27.00" color="blue">
        <route edges="G7G8 G8G9 G9G10 G10H10 H10I10 I10J10 J10K10 K10L10 L10M10 M10N10 N10O10 O10O9"/>
    </vehicle>
    <vehicle id="car55" depart="27.50" color="blue">
        <route edges="M9L9 L9K9 K9J9 J9I9 I9H9 H9G9 G9F9 F9E9 E9E10 E10E11"/>
    </vehicle>
    <vehicle id="car56" depart="28.00" color="blue">
        <route edges="H2I2 I2H2 H2G2 G2F2 F2E2 E2D2 D2C2 C2C3 C3C4 C4C5 C5C6 C6C7 C7D7"/>
    </vehicle>
    <vehicle id="car57" depart="28.50" color="blue">
        <route edges="N2N1 N1M1 M1M2 M2M3 M3M4 M4M5 M5M6 M6M7 M7M8 M8L8"/>
    </vehicle>
    <vehicle id="car58" depart="29.00" color="blue">
        <route edges="E3F3 F3F2 F2G2 G2H2 H2I2 I2J2 J2K2"/>
    </vehicle>
    <vehicle id="car59" depart="29.50" color="blue">
        <route edges="J10J11 J11J10 J10J9 J9J8 J8J7 J7J6 J6J5 J5J4 J4J3 J3J2 J2I2 I2H2 H2G2 G2F2 F2E2 E2D2 D2C2 C2C1"/>
    </vehicle>
    <vehicle id="car60" depart="30.00" color="blue">
        <route edges="L13L14 L14L13 L13L12 L12L11 L11L10 L10K10 K10J10 J10I10 I10I11"/>
    </vehicle>
    <vehicle id="car61" depart="30.50" color="blue">
        <route edges="L3L2 L2K2 K2J2 J2I2 I2H2 H2H3 H3H4 H4H5 H5H6 H6H7 H7H8 H8H9 H9G9"/>
    </vehicle>
    <vehicle id="car62" depart="31.00" color="blue">
        <route edges="A0A1 A1A2 A2A3 A3A4 A4A5 A5A6 A6A7 A7A8 A8A9 A9B9 B9C9 C9D9 D9E9 E9E10"/>
    </vehicle>
    <vehicle id="car63" depart="31.50" color="blue">
        <route edges="A1A0 A0B0 B0C0 C0D0 D0E0 E0F0 F0G0 G0H0 H0I0 I0J0 J0K0 K0L0 L0M0 M0N0 N0N1 N1N2 N2N3 N3N4 N4N5 N5O5"/>
    </vehicle>
    <vehicle id="car64" depart="32.00" color="blue">
        <route edges="M9N9 N9M9 M9M10 M10M11 M11M12 M12M13 M13M14"/>
    </vehicle>
    <vehicle id="car65" depart="32.50" color="blue">
        <route edges="E5F5 F5E5 E5D5 D5C5 C5B5 B5B6 B6B7 B7B8 B8B9 B9B10 B10B9"/>
    </vehicle>
    <vehicle id="car66" depart="33.00" color="blue">
        <route edges="M9M8 M8M9 M9N9 N9N8"/>
    </vehicle>
    <vehicle id="car67" depart="33.50" color="blue">
        <route edges="B2B3 B3B4 B4C4 C4D4 D4E4 E4F4 F4G4 G4H4 H4H5 H5H6 H6H7 H7H8 H8H9 H9H10 H10H11 H11H12 H12H13 H13H14"/>
    </vehicle>
    <vehicle id="car68" depart="34.00" color="blue">
        <route edges="B13A13 A13B13 B13C13 C13D13 D13E13 E13F13 F13G13 G13H13 H13I13 I13J13 J13K13 K13L13 L13K13"/>
    </vehicle>
    <vehicle id="car69" depart="34.50" color="blue">
        <route edges="L14L13 L13L12 L12L11 L11L10 L10K10 K10J10 J10I10 I10H10 H10G10 G10F10 F10E10 E10D10 D10C10 C10D10"/>
    </vehicle>
    <vehicle id="car70" depart="35.00" color="blue">
        <route edges="H11H10 H10H11 H11H12 H12I12 I12I11"/>
    </vehicle>
    <vehicle id="car71" depart="35.50" color="blue">
        <route edges="E10E9 E9E8 E8F8 F8G8 G8H8 H8I8 I8J8 J8K8 K8L8 L8M8 M8M7"/>
    </vehicle>
    <vehicle id="car72" depart="36.00" color="blue">
        <route edges="G1F1 F1E1 E1D1 D1D2 D2D3 D3D4 D4D5 D5D6 D6D7 D7D8 D8D9 D9D10 D10D11 D11D12 D12D13 D13E13"/>
    </vehicle>
    <vehicle id="car73" depart="36.50" color="blue">
        <route edges="I10I11 I11J11 J11K11 K11K10 K10K9 K9K8 K8K7 K7K8"/>
    </vehicle>
    <vehicle id="car74" depart="37.00" color="blue">
        <route edges="D11D12 D12E12 E12E11 E11E10 E10E9 E9E8 E8E7 E7E6 E6E7"/>
    </vehicle>
    <vehicle id="car75" depart="37.50" color="blue">
        <route edges="O8O7 O7O6 O6O5 O5N5 N5M5 M5L5 L5K5 K5J5 J5I5"/>
    </vehicle>
    <vehicle id="car76" depart="38.00" color="blue">
        <route edges="G4G3 G3G4 G4G5 G5G6 G6H6 H6H5"/>
    </vehicle>
    <vehicle id="car77" depart="38.50" color="blue">
        <route edges="C0B0 B0B1 B1B2 B2C2 C2D2 D2E2"/>
    </vehicle>
    <vehicle id="car78" depart="39.00" color="blue">
        <route edges="F11F10 F10F9 F9F8 F8F7 F7F6 F6G6 G6H6 H6I6 I6J6"/>
    </vehicle>
    <vehicle id="car79" depart="39.50" color="blue">
        <route edges="D4C4 C4D4 D4D3 D3D2 D2D1 D1E1"/>
    </vehicle>
    <vehicle id="car80" depart="40.00" color="blue">
        <route edges="B13B12 B12B11 B11B10 B10B9 B9B8 B8B7 B7B6 B6B5 B5B4 B4B3 B3B2 B2B1 B1C1 C1D1 D1E1 E1F1 F1G1 G1H1 H1I1 I1J1 J1J0"/>
    </vehicle>
    <vehicle id="car81" depart="40.50" color="blue">
        <route edges="D3E3 E3F3 F3G3 G3H3 H3I3 I3J3 J3K3 K3L3 L3M3 M3N3 N3N4 N4N5 N5N6 N6N7 N7N8 N8N9 N9N10 N10N11 N11N12 N12N13 N13N14 N14O14"/>
    </vehicle>
    <vehicle id="car82" depart="41.00" color="blue">
        <route edges="M5N5 N5M5 M5L5 L5K5 K5J5 J5I5 I5H5 H5G5 G5F5 F5E5 E5D5 D5C5 C5B5 B5B6 B6B7 B7B8 B8B9 B9B10 B10B11 B11B12 B12B13 B13B12"/>
    </vehicle>
    <vehicle id="car83" depart="41.50" color="blue">
        <route edges="D5D6 D6D7 D7D8 D8D9 D9E9 E9F9 F9G9 G9H9 H9I9 I9J9 J9I9"/>
    </vehicle>
    <vehicle id="car84" depart="42.00" color="blue">
        <route edges="D14D13 D13D12 D12D11 D11C11 C11D11"/>
    </vehicle>
    <vehicle id="car85" depart="42.50" color="blue">
        <route edges="N7M7 M7L7 L7K7 K7J7 J7I7 I7I6 I6I5 I5I4 I4I3 I3H3"/>
    </vehicle>
    <vehicle id="car86" depart="43.00" color="blue">
        <route edges="H10I10 I10J10 J10K10 K10L10 L10L9 L9L8 L8L7 L7L6 L6L5 L5L4 L4L5"/>
    </vehicle>
    <vehicle id="car87" depart="43.50" color="blue">
        <route edges="L9L10 L10L9 L9L8 L8L7 L7L6 L6L5 L5L4 L4L3 L3L2 L2L1 L1L0 L0K0 K0J0 J0I0 I0H0 H0G0 G0F0 F0E0 E0D0 D0C0"/>
    </vehicle>
    <vehicle id="car88" depart="44.00" color="blue">
        <route edges="B5A5 A5A4 A4A3 A3A2 A2B2 B2C2 C2D2 D2E2 E2F2 F2G2 G2H2"/>
    </vehicle>
    <vehicle id="car89" depart="44.50" color="blue">
        <route edges="G1F1 F1G1 G1H1 H1H0 H0H1"/>
    </vehicle>
    <vehicle id="car90" depart="45.00" color="blue">
        <route edges="K7K6 K6K5 K5K4 K4K3 K3K2 K2K1 K1K0 K0J0"/>
    </vehicle>
    <vehicle id="car91" depart="45.50" color="blue">
        <route edges="O5O4 O4N4 N4M4 M4L4 L4K4 K4J4 J4I4 I4H4 H4G4 G4F4 F4E4 E4D4 D4C4 C4B4 B4B5 B5B4"/>
    </vehicle>
    <vehicle id="car92" depart="46.00" color="blue">
        <route edges="G10G9 G9F9 F9F10 F10F11 F11G11"/>
    </vehicle>
    <vehicle id="car93" depart="46.50" color="blue">
        <route edges="M6L6 L6K6 K6J6 J6I6 I6H6 H6G6 G6F6 F6E6 E6D6 D6D7 D7E7"/>
    </vehicle>
    <vehicle id="car94" depart="47.00" color="blue">
        <route edges="D0C0 C0C1 C1C2 C2C3 C3C4 C4C5 C5C6 C6D6 D6E6 E6F6 F6G6 G6G5"/>
    </vehicle>
    <vehicle id="car95" depart="47.50" color="blue">
        <route edges="G14H14 H14H13 H13G13 G13F13 F13E13 E13E12"/>
    </vehicle>
    <vehicle id="car96" depart="48.00" color="blue">
        <route edges="D8C8 C8D8 D8E8 E8F8 F8G8 G8H8 H8I8 I8J8 J8K8 K8L8 L8M8 M8N8 N8N7 N7N6 N6N5 N5N4 N4N5"/>
    </vehicle>
    <vehicle id="car97" depart="48.50" color="blue">
        <route edges="G5G4 G4G5 G5G6 G6H6 H6I6 I6J6 J6K6 K6L6 L6M6 M6L6"/>
    </vehicle>
    <vehicle id="car98" depart="49.00" color="blue">
        <route edges="I12I13 I13I12 I12I11 I11I10 I10I9 I9H9 H9G9 G9F9 F9E9 E9D9 D9C9 C9B9 B9A9 A9B9"/>
    </vehicle>
    <vehicle id="car99" depart="49.50" color="blue">
        <route edges="O9O8 O8N8 N8M8 M8M9 M9M10 M10M11 M11M12 M12M13 M13M14 M14N14"/>
    </vehicle>
    <vehicle id="car100" depart="50.00" color="blue">
        <route edges="O1N1 N1N2 N2N3 N3N4 N4N5 N5N4"/>
    </vehicle>
    <vehicle id="car101" depart="50.50" color="blue">
        <route edges="M3M2 M2L2 L2K2 K2J2 J2I2 I2I3 I3I4 I4I5 I5H5 H5G5 G5F5 F5E5 E5D5 D5C5 C5B5"/>
    </vehicle>
    <vehicle id="car102" depart="51.00" color="blue">
        <route edges="H13H12 H12G12 G12F12 F12E12 E12D12 D12D13 D13D14 D14D13"/>
    </vehicle>
    <vehicle id="car103" depart="51.50" color="blue">
        <route edges="G10F10 F10E10 E10D10 D10C10 C10B10 B10C10"/>
    </vehicle>
    <vehicle id="car104" depart="52.00" color="blue">
        <route edges="F6F5 F5G5 G5H5 H5I5 I5J5 J5K5 K5L5 L5M5 M5N5 N5O5 O5O6"/>
    </vehicle>
    <vehicle id="car105" depart="52.50" color="blue">
        <route edges="E10E9 E9E8 E8E7 E7E6 E6E5 E5E4 E4F4 F4G4 G4H4 H4I4 I4J4 J4K4 K4L4 L4L3"/>
    </vehicle>
    <vehicle id="car106" depart="53.00" color="blue">
        <route edges="G7H7 H7H6 H6H5 H5H4 H4H3 H3H2 H2H1 H1G1 G1F1"/>
    </vehicle>
    <vehicle id="car107" depart="53.50" color="blue">
        <route edges="O11O12 O12O11 O11O10 O10O9 O9O8 O8O9"/>
    </vehicle>
    <vehicle id="car108" depart="54.00" color="blue">
        <route edges="I13I14 I14J14 J14K14 K14K13 K13K12 K12K11 K11K10 K10K9 K9K8 K8K7 K7K6 K6K5 K5J5"/>
    </vehicle>
    <vehicle id="car109" depart="54.50" color="blue">
        <route edges="C2D2 D2E2 E2E3 E3E4"/>
    </vehicle>
    <vehicle id="car110" depart="55.00" color="blue">
        <route edges="O1N1 N1M1 M1L1 L1K1 K1J1 J1I1 I1I2 I2I3 I3I4 I4J4"/>
    </vehicle>
    <vehicle id="car111" depart="55.50" color="blue">
        <route edges="I10J10 J10K10 K10L10 L10L9"/>
    </vehicle>
    <vehicle id="car112" depart="56.00" color="blue">
        <route edges="B10B9 B9B8 B8B7 B7B6 B6B5 B5C5 C5D5 D5E5 E5F5 F5G5 G5H5 H5I5 I5J5"/>
    </vehicle>
    <vehicle id="car113" depart="56.50" color="blue">
        <route edges="H3H2 H2H3 H3H4 H4I4 I4J4 J4K4 K4L4 L4M4 M4M3"/>
    </vehicle>
    <vehicle id="car114" depart="57.00" color="blue">
        <route edges="C3C2 C2C3 C3C4 C4C5 C5C6 C6C7 C7C8 C8C9 C9C10 C10C11 C11C12 C12D12 D12E12 E12F12 F12G12 G12H12 H12I12 I12J12 J12K12 K12L12 L12M12 M12N12 N12O12 O12O13"/>
    </vehicle>
    <vehicle id="car115" depart="57.50" color="blue">
        <route edges="B1B2 B2C2 C2C3 C3C4 C4C5 C5C6 C6C7 C7C8 C8C9 C9C10"/>
    </vehicle>
    <vehicle id="car116" depart="58.00" color="blue">
        <route edges="I8H8 H8I8 I8J8 J8K8 K8K7 K7K6 K6K5 K5K4 K4K3 K3K2 K2K1 K1K0 K0L0"/>
    </vehicle>
    <vehicle id="car117" depart="58.50" color="blue">
        <route edges="D5C5 C5B5 B5B6 B6B7 B7B8 B8B9 B9C9"/>
    </vehicle>
    <vehicle id="car118" depart="59.00" color="blue">
        <route edges="N11N10 N10N9 N9N8 N8N7 N7M7 M7L7 L7K7 K7J7 J7I7 I7H7 H7G7 G7F7 F7E7 E7D7 D7D6"/>
    </vehicle>
    <vehicle id="car119" depart="59.50" color="blue">
        <route edges="I8H8 H8H9 H9I9 I9J9 J9J10 J10J11 J11J12 J12J13"/>
    </vehicle>
    <vehicle id="car120" depart="60.00" color="blue">
        <route edges="G14F14 F14G14 G14H14 H14I14 I14I13 I13I12 I12I11 I11I10 I10I9 I9I8 I8I7 I7I6 I6I5 I5J5"/>
    </vehicle>
    <vehicle id="car121" depart="60.50" color="blue">
        <route edges="H7H8 H8I8 I8J8 J8K8 K8L8 L8M8 M8N8 N8N7 N7M7"/>
    </vehicle>
    <vehicle id="car122" depart="61.00" color="blue">
        <route edges="D12D11 D11D10 D10D9 D9D8 D8D7 D7D6 D6D5 D5E5 E5F5 F5G5 G5H5 H5I5 I5J5 J5K5 K5K4 K4K5"/>
    </vehicle>
    <vehicle id="car123" depart="61.50" color="blue">
        <route edges="D5E5 E5F5 F5F6 F6F7 F7F8 F8F9 F9G9"/>
    </vehicle>
    <vehicle id="car124" depart="62.00" color="blue">
        <route edges="J9K9 K9K8 K8K7 K7K6 K6K5 K5K4 K4J4 J4I4 I4H4 H4G4 G4F4 F4E4 E4D4"/>
    </vehicle>
    <vehicle id="car125" depart="62.50" color="blue">
        <route edges="E7E8 E8E9 E9E10 E10E11 E11F11 F11G11 G11H11 H11I11 I11J11 J11K11 K11L11 L11L10"/>
    </vehicle>
    <vehicle id="car126" depart="63.00" color="blue">
        <route edges="B13B14 B14C14 C14D14 D14E14 E14F14 F14G14 G14G13 G13G12 G12G11 G11G10 G10G9 G9G8 G8G7"/>
    </vehicle>
    <vehicle id="car127" depart="63.50" color="blue">
        <route edges="O9O10 O10O9 O9O8 O8O9"/>
    </vehicle>
    <vehicle id="car128" depart="64.00" color="blue">
        <route edges="B13C13 C13C14 C14D14 D14D13"/>
    </vehicle>
    <vehicle id="car129" depart="64.50" color="blue">
        <route edges="E10E9 E9E8 E8E7 E7F7 F7G7 G7H7 H7I7 I7J7 J7K7 K7L7 L7M7 M7N7 N7N6 N6N7"/>
    </vehicle>
    <vehicle id="car130" depart="65.00" color="blue">
        <route edges="N0M0 M0M1 M1M2 M2M3 M3M4 M4M5 M5M6 M6M7 M7M8 M8M9 M9N9"/>
    </vehicle>
    <vehicle id="car131" depart="65.50" color="blue">
        <route edges="F4F3 F3E3 E3D3 D3C3 C3C2"/>
    </vehicle>
    <vehicle id="car132" depart="66.00" color="blue">
        <route edges="M14L14 L14L13 L13L12 L12L11 L11L10 L10L9 L9L8 L8L7 L7L6 L6L5 L5L4 L4L3 L3L2 L2L1 L1K1 K1L1"/>
    </vehicle>
    <vehicle id="car133" depart="66.50" color="blue">
        <route edges="J10K10 K10L10 L10M10 M10N10 N10O10 O10O9 O9O8 O8O7 O7O6 O6O5"/>
    </vehicle>
    <vehicle id="car134" depart="67.00" color="blue">
        <route edges="J6I6 I6H6 H6G6 G6F6 F6E6 E6D6 D6C6 C6B6 B6A6 A6A7 A7A8 A8A9 A9A10 A10A11 A11A12"/>
    </vehicle>
    <vehicle id="car135" depart="67.50" color="blue">
        <route edges="M10M9 M9M8 M8M7 M7M6 M6M5 M5M4 M4L4 L4K4 K4J4 J4I4 I4H4 H4G4 G4F4 F4E4 E4D4"/>
    </vehicle>
    <vehicle id="car136" depart="68.00" color="blue">
        <route edges="J8I8 I8J8 J8J7 J7K7 K7L7 L7M7 M7N7 N7O7"/>
    </vehicle>
    <vehicle id="car137" depart="68.50" color="blue">
        <route edges="C12B12 B12B11 B11B10 B10B9 B9B8 B8C8"/>
    </vehicle>
    <vehicle id="car138" depart="69.00" color="blue">
        <route edges="B7A7 A7A8 A8A9 A9A10 A10A11 A11A12 A12A13 A13B13 B13C13 C13D13 D13E13 E13F13 F13G13 G13H13 H13I13 I13H13"/>
    </vehicle>
    <vehicle id="car139" depart="69.50" color="blue">
        <route edges="E12D12 D12E12 E12F12 F12G12 G12H12 H12I12 I12J12 J12J11 J11J10 J10J9 J9J8 J8J7 J7J6 J6J5 J5J4 J4J3 J3J2 J2J1 J1J0 J0J1"/>
    </vehicle>
    <vehicle id="car140" depart="70.00" color="blue">
        <route edges="K4L4 L4K4 K4J4 J4I4 I4H4 H4G4 G4F4 F4E4 E4D4 D4D5 D5D6 D6D7 D7D8 D8D9 D9D10 D10D11 D11D12 D12D11"/>
    </vehicle>
    <vehicle id="car141" depart="70.50" color="blue">
        <route edges="J1K1 K1J1 J1I1 I1H1 H1G1 G1F1 F1E1 E1E2 E2E3 E3E4 E4E5 E5E6 E6E7 E7E8 E8E9 E9E10 E10E11"/>
    </vehicle>
    <vehicle id="car142" depart="71.00" color="blue">
        <route edges="H14G14 G14H14 H14I14 I14J14 J14K14 K14L14 L14M14 M14N14 N14O14"/>
    </vehicle>
    <vehicle id="car143" depart="71.50" color="blue">
        <route edges="M2N2 N2M2 M2M3 M3M4 M4L4 L4K4 K4J4 J4I4 I4H4 H4G4 G4F4 F4E4 E4D4 D4C4 C4B4 B4A4"/>
    </vehicle>
    <vehicle id="car144" depart="72.00" color="blue">
        <route edges="G1F1 F1E1 E1E2 E2E3 E3E4 E4E5 E5E6 E6E7 E7E8 E8E9 E9E10 E10E11 E11E12 E12E13 E13D13"/>
    </vehicle>
    <vehicle id="car145" depart="72.50" color="blue">
        <route edges="A10A11 A11B11 B11C11 C11D11 D11E11 E11F11 F11G11 G11H11 H11I11 I11J11 J11K11 K11L11 L11L10 L10L9 L9L8 L8L7 L7L6 L6L5 L5L4 L4L3 L3L2 L2L1 L1L2"/>
    </vehicle>
    <vehicle id="car146" depart="73.00" color="blue">
        <route edges="J2J3 J3J4 J4J5 J5J6 J6J7 J7J8 J8J9 J9J10 J10I10 I10H10 H10G10 G10F10 F10E10 E10D10"/>
    </vehicle>
    <vehicle id="car147" depart="73.50" color="blue">
        <route edges="K9L9 L9K9 K9J9 J9I9 I9I10 I10I11 I11I12 I12J12"/>
    </vehicle>
    <vehicle id="car148" depart="74.00" color="blue">
        <route edges="G2F2 F2E2 E2D2 D2C2 C2B2 B2A2 A2A3 A3A4 A4A5 A5A6 A6A7 A7A8 A8A9 A9A10 A10A11 A11A12 A12A11"/>
    </vehicle>
    <vehicle id="car149" depart="74.50" color="blue">
        <route edges="B14B13 B13B12 B12B11 B11B10 B10B9 B9B8 B8B7 B7B6 B6B5 B5B4 B4B3 B3B2 B2B1 B1B0 B0C0 C0D0 D0E0 E0F0 F0G0 G0H0 H0I0 I0J0 J0K0 K0L0 L0M0 M0N0 N0O0"/>
    </vehicle>
    <vehicle id="car150" depart="75.00" color="blue">
        <route edges="N14N13 N13N12 N12N11 N11M11 M11L11 L11K11 K11J11 J11I11 I11I12"/>
    </vehicle>
    <vehicle id="car151" depart="75.50" color="blue">
        <route edges="M14M13 M13M12 M12M11 M11M10 M10M9 M9M8 M8M7 M7M6 M6M5 M5L5 L5K5 K5J5 J5I5 I5I6"/>
    </vehicle>
    <vehicle id="car152" depart="76.00" color="blue">
        <route edges="C1C0 C0C1 C1C2 C2C3 C3C4 C4C5 C5C6 C6C7 C7C8 C8C9 C9C10 C10D10"/>
    </vehicle>
    <vehicle id="car153" depart="76.50" color="blue">
        <route edges="E5F5 F5G5 G5H5 H5I5 I5J5 J5K5 K5L5 L5M5 M5M6 M6M7 M7M8 M8M9 M9M10 M10M11 M11M12 M12M13 M13N13 N13N12"/>
    </vehicle>
    <vehicle id="car154" depart="77.00" color="blue">
        <route edges="L6M6 M6M5 M5N5"/>
    </vehicle>
    <vehicle id="car155" depart="77.50" color="blue">
        <route edges="N13N12 N12M12 M12L12 L12K12 K12J12 J12I12 I12H12 H12G12 G12F12 F12E12 E12D12 D12D13 D13D14"/>
    </vehicle>
    <vehicle id="car156" depart="78.00" color="blue">
        <route edges="D8C8 C8B8 B8B7 B7B6 B6B5"/>
    </vehicle>
    <vehicle id="car157" depart="78.50" color="blue">
        <route edges="L3L4 L4L5 L5L6 L6L7 L7L8 L8L9 L9L10 L10M10 M10N10 N10M10"/>
    </vehicle>
    <vehicle id="car158" depart="79.00" color="blue">
        <route edges="G11G10 G10G11 G11G12 G12H12 H12I12 I12J12 J12K12"/>
    </vehicle>
    <vehicle id="car159" depart="79.50" color="blue">
        <route edges="C2C3 C3C4 C4C5 C5C6 C6D6 D6E6 E6F6 F6G6 G6H6 H6I6 I6J6 J6K6 K6L6 L6M6 M6N6 N6M6"/>
    </vehicle>
    <vehicle id="car160" depart="80.00" color="blue">
        <route edges="M6N6 N6O6 O6O5 O5O4 O4O3 O3O2"/>
    </vehicle>
    <vehicle id="car161" depart="80.50" color="blue">
        <route edges="M0L0 L0M0 M0N0 N0N1"/>
    </vehicle>
    <vehicle id="car162" depart="81.00" color="blue">
        <route edges="A2A3 A3A4 A4A5 A5A6 A6A7 A7A8 A8B8 B8C8 C8D8 D8E8 E8F8 F8G8 G8H8 H8I8 I8J8 J8K8 K8L8"/>
    </vehicle>
    <vehicle id="car163" depart="81.50" color="blue">
        <route edges="F10F11 F11G11 G11H11 H11I11 I11J11 J11K11 K11L11 L11M11 M11N11 N11N10 N10N9 N9N8 N8N7 N7N6 N6M6"/>
    </vehicle>
    <vehicle id="car164" depart="82.00" color="blue">
        <route edges="L8K8 K8L8 L8M8 M8M7 M7M6 M6M7"/>
    </vehicle>
    <vehicle id="car165" depart="82.50" color="blue">
        <route edges="M0L0 L0K0 K0J0 J0I0 I0H0 H0G0 G0F0 F0E0 E0E1 E1E2 E2E3 E3E4 E4E5 E5E6 E6E7 E7E8 E8E9 E9E10 E10E11 E11D11"/>
    </vehicle>
    <vehicle id="car166" depart="83.00" color="blue">
        <route edges="L5K5 K5J5 J5I5 I5H5 H5G5 G5F5 F5E5 E5D5 D5C5 C5B5 B5B6 B6B7 B7B6"/>
    </vehicle>
    <vehicle id="car167" depart="83.50" color="blue">
        <route edges="M8M7 M7M6 M6M5 M5M6"/>
    </vehicle>
    <vehicle id="car168" depart="84.00" color="blue">
        <route edges="D2D1 D1D2 D2D3 D3D4 D4D5 D5D6 D6D7 D7D8 D8D9 D9D10 D10E10 E10F10 F10G10 G10H10 H10I10 I10J10 J10K10 K10L10 L10M10 M10M11"/>
    </vehicle>
    <vehicle id="car169" depart="84.50" color="blue">
        <route edges="G8H8 H8H7 H7H6 H6H5 H5G5 G5F5 F5E5 E5E4"/>
    </vehicle>
    <vehicle id="car170" depart="85.00" color="blue">
        <route edges="L6M6 M6M5 M5M4 M4M3 M3L3 L3K3 K3J3 J3I3 I3H3 H3G3 G3F3 F3E3 E3D3 D3D4"/>
    </vehicle>
    <vehicle id="car171" depart="85.50" color="blue">
        <route edges="A2A1 A1A2 A2A3 A3A4 A4A5 A5A6 A6A7 A7A8 A8A9 A9A10 A10B10 B10C10 C10D10 D10C10"/>
    </vehicle>
    <vehicle id="car172" depart="86.00" color="blue">
        <route edges="F0E0 E0E1 E1E2 E2E3 E3E4 E4E5 E5E6 E6F6 F6G6 G6H6 H6I6 I6J6 J6K6 K6L6 L6M6 M6N6"/>
    </vehicle>
    <vehicle id="car173" depart="86.50" color="blue">
        <route edges="O14O13 O13N13 N13M13 M13L13 L13K13 K13J13 J13I13 I13H13 H13G13 G13F13 F13E13 E13E14"/>
    </vehicle>
    <vehicle id="car174" depart="87.00" color="blue">
        <route edges="J3J2 J2J1 J1J0 J0I0 I0H0 H0G0 G0H0"/>
    </vehicle>
    <vehicle id="car175" depart="87.50" color="blue">
        <route edges="O4O5 O5O4 O4O3 O3O2 O2O1 O1O0 O0N0 N0M0 M0L0 L0K0 K0J0 J0I0 I0I1"/>
    </vehicle>
    <vehicle id="car176" depart="88.00" color="blue">
        <route edges="N7O7 O7N7 N7M7 M7L7 L7K7 K7J7 J7I7 I7H7 H7G7 G7F7 F7E7 E7D7 D7C7 C7B7 B7B8 B8C8"/>
    </vehicle>
    <vehicle id="car177" depart="88.50" color="blue">
        <route edges="O1O2 O2O3 O3O4 O4O5 O5O6 O6O7 O7N7 N7M7 M7L7 L7K7 K7J7 J7I7 I7H7 H7G7 G7F7 F7E7 E7D7 D7C7 C7C8"/>
    </vehicle>
    <vehicle id="car178" depart="89.00" color="blue">
        <route edges="O13N13 N13M13 M13L13 L13K13 K13J13 J13I13 I13H13 H13G13 G13F13 F13E13 E13E12 E12E11 E11E10 E10E9"/>
    </vehicle>
    <vehicle id="car179" depart="89.50" color="blue">
        <route edges="B7B8 B8C8 C8D8 D8E8 E8F8 F8G8 G8G7 G7G6 G6G5 G5G4 G4G3 G3G4"/>
    </vehicle>
    <vehicle id="car180" depart="90.00" color="blue">
        <route edges="K7J7 J7I7 I7H7 H7G7 G7F7 F7E7 E7D7"/>
    </vehicle>
    <vehicle id="car181" depart="90.50" color="blue">
        <route edges="J0K0 K0J0 J0I0 I0I1 I1I2 I2I3 I3I4 I4I5 I5H5 H5G5"/>
    </vehicle>
    <vehicle id="car182" depart="91.00" color="blue">
        <route edges="F7F8 F8G8 G8H8 H8I8 I8I7 I7I6 I6I5 I5I4 I4I3"/>
    </vehicle>
    <vehicle id="car183" depart="91.50" color="blue">