<?xml version="1.0" encoding="UTF-8"?>

<!-- generated on 2024-03-04 23:23:33.262371 by randomTrips.py UNKNOWN
<configuration>
    <net-file value="cenary.net.xml"/>
    <output-trip-file value="odtrips.emergency.xml"/>
    <route-file value="cenary.emergency.rou.xml"/>
    <prefix value="emergency"/>
    <trip-attributes value="color=&quot;1,0,0&quot;"/>
    <vehicle-class value="emergency"/>
    <period value="150.0"/>
</configuration>
-->

<!-- generated on 2024-03-04 23:23:33 by Eclipse SUMO duarouter Version 1.19.0
<configuration xmlns:xsi="http://www.w3.org/2001/XMLSchema-instance" xsi:noNamespaceSchemaLocation="http://sumo.dlr.de/xsd/duarouterConfiguration.xsd">

    <input>
        <net-file value="cenary.net.xml"/>
        <route-files value="odtrips.emergency.xml"/>
    </input>

    <output>
        <output-file value="cenary.emergency.rou.xml"/>
        <alternatives-output value="NUL"/>
    </output>

    <time>
        <begin value="0"/>
        <end value="3600"/>
    </time>

    <report>
        <no-warnings value="true"/>
        <ignore-errors value="true"/>
        <no-step-log value="true"/>
    </report>

</configuration>
-->

<routes xmlns:xsi="http://www.w3.org/2001/XMLSchema-instance" xsi:noNamespaceSchemaLocation="http://sumo.dlr.de/xsd/routes_file.xsd">
    <vType id="emergency_emergency" vClass="emergency" color="red"/>
    <vehicle id="emergency0" type="emergency_emergency" depart="0.00">
        <route edges="C1D1 D1C1 C1B1 B1A1 A1A0 A0B0"/>
    </vehicle>
    <vehicle id="emergency1" type="emergency_emergency" depart="150.00">
        <route edges="B1A1 A1B1 B1B0 B0A0"/>
    </vehicle>
    <vehicle id="emergency2" type="emergency_emergency" depart="300.00">
        <route edges="C3B3 B3C3 C3C2 C2C1"/>
    </vehicle>
    <vehicle id="emergency3" type="emergency_emergency" depart="450.00">
        <route edges="D1D2 D2D1 D1C1 C1B1 B1A1 A1B1"/>
    </vehicle>
    <vehicle id="emergency4" type="emergency_emergency" depart="600.00">
        <route edges="B2C2 C2C1 C1B1 B1A1 A1A0 A0B0"/>
    </vehicle>
    <vehicle id="emergency5" type="emergency_emergency" depart="750.00">
        <route edges="B0A0 A0A1 A1B1 B1C1 C1C0 C0B0"/>
    </vehicle>
    <vehicle id="emergency6" type="emergency_emergency" depart="900.00">
        <route edges="A0B0 B0A0 A0A1 A1A2 A2A3 A3B3"/>
    </vehicle>
    <vehicle id="emergency7" type="emergency_emergency" depart="1050.00">
        <route edges="C2B2 B2C2 C2C1 C1C0 C0D0"/>
    </vehicle>
    <vehicle id="emergency8" type="emergency_emergency" depart="1200.00">
        <route edges="B0A0 A0A1 A1B1 B1C1 C1C0"/>
    </vehicle>
    <vehicle id="emergency9" type="emergency_emergency" depart="1350.00">
        <route edges="D0C0 C0B0 B0A0 A0A1"/>
    </vehicle>
    <vehicle id="emergency10" type="emergency_emergency" depart="1500.00">
        <route edges="D0C0 C0C1 C1C2 C2C3"/>
    </vehicle>
    <vehicle id="emergency11" type="emergency_emergency" depart="1650.00">
        <route edges="B1C1 C1B1 B1A1 A1A2 A2B2"/>
    </vehicle>
    <vehicle id="emergency12" type="emergency_emergency" depart="1800.00">
        <route edges="D2D3 D3C3 C3C2 C2C1 C1B1 B1C1"/>
    </vehicle>
    <vehicle id="emergency13" type="emergency_emergency" depart="1950.00">
        <route edges="A1B1"/>
    </vehicle>
    <vehicle id="emergency14" type="emergency_emergency" depart="2100.00">
        <route edges="D1C1 C1C0"/>
    </vehicle>
    <vehicle id="emergency15" type="emergency_emergency" depart="2250.00">
        <route edges="D0C0 C0C1 C1C2 C2C3 C3B3"/>
    </vehicle>
    <vehicle id="emergency16" type="emergency_emergency" depart="2400.00">
        <route edges="C0C1 C1C2 C2D2 D2D3 D3C3"/>
    </vehicle>
    <vehicle id="emergency17" type="emergency_emergency" depart="2550.00">
        <route edges="B2B1 B1B0 B0C0 C0D0"/>
    </vehicle>
    <vehicle id="emergency18" type="emergency_emergency" depart="2700.00">
        <route edges="D0D1 D1C1 C1C2"/>
    </vehicle>
    <vehicle id="emergency19" type="emergency_emergency" depart="2850.00">
        <route edges="D1D0 D0C0 C0C1 C1B1"/>
    </vehicle>
    <vehicle id="emergency20" type="emergency_emergency" depart="3000.00">
        <route edges="C2C3 C3B3 B3A3 A3A2 A2A1 A1A0"/>
    </vehicle>
    <vehicle id="emergency21" type="emergency_emergency" depart="3150.00">
        <route edges="B0A0 A0A1 A1B1 B1A1"/>
    </vehicle>
    <vehicle id="emergency22" type="emergency_emergency" depart="3300.00">
        <route edges="A1A2 A2B2 B2B1 B1B0 B0B1"/>
    </vehicle>
    <vehicle id="emergency23" type="emergency_emergency" depart="3450.00">
        <route edges="A1B1 B1A1"/>
    </vehicle>
</routes>
