<?xml version="1.0" encoding="UTF-8"?>

<!-- generated on 2024-02-26 22:04:59.585837 by randomTrips.py UNKNOWN
<configuration>
    <net-file value="cenary.net.xml"/>
    <output-trip-file value="odtrips.emergency.xml"/>
    <route-file value="cenary.emergency.rou.xml"/>
    <prefix value="emergency"/>
    <trip-attributes value="color=&quot;1,0,0&quot;"/>
    <vehicle-class value="emergency"/>
    <period value="10.0"/>
</configuration>
-->

<!-- generated on 2024-02-26 22:04:59 by Eclipse SUMO duarouter Version 1.19.0
<configuration xmlns:xsi="http://www.w3.org/2001/XMLSchema-instance" xsi:noNamespaceSchemaLocation="http://sumo.dlr.de/xsd/duarouterConfiguration.xsd">

    <input>
        <net-file value="cenary.net.xml"/>
        <route-files value="odtrips.emergency.xml"/>
    </input>

    <output>
        <output-file value="cenary.emergency.rou.xml"/>
        <alternatives-output value="NUL"/>
    </output>

    <time>
        <begin value="0"/>
        <end value="3600"/>
    </time>

    <report>
        <no-warnings value="true"/>
        <ignore-errors value="true"/>
        <no-step-log value="true"/>
    </report>

</configuration>
-->

<routes xmlns:xsi="http://www.w3.org/2001/XMLSchema-instance" xsi:noNamespaceSchemaLocation="http://sumo.dlr.de/xsd/routes_file.xsd">
    <vType id="emergency_emergency" vClass="emergency" color="red"/>
    <vehicle id="emergency0" type="emergency_emergency" depart="0.00">
        <route edges="C1D1 D1C1 C1B1 B1A1 A1A0 A0B0"/>
    </vehicle>
    <vehicle id="emergency1" type="emergency_emergency" depart="10.00">
        <route edges="B1A1 A1B1 B1B0 B0A0"/>
    </vehicle>
    <vehicle id="emergency2" type="emergency_emergency" depart="20.00">
        <route edges="C3B3 B3C3 C3C2 C2C1"/>
    </vehicle>
    <vehicle id="emergency3" type="emergency_emergency" depart="30.00">
        <route edges="D1D2 D2D1 D1C1 C1B1 B1A1 A1B1"/>
    </vehicle>
    <vehicle id="emergency4" type="emergency_emergency" depart="40.00">
        <route edges="B2C2 C2C1 C1B1 B1A1 A1A0 A0B0"/>
    </vehicle>
    <vehicle id="emergency5" type="emergency_emergency" depart="50.00">
        <route edges="B0A0 A0A1 A1B1 B1C1 C1C0 C0B0"/>
    </vehicle>
    <vehicle id="emergency6" type="emergency_emergency" depart="60.00">
        <route edges="A0B0 B0A0 A0A1 A1A2 A2A3 A3B3"/>
    </vehicle>
    <vehicle id="emergency7" type="emergency_emergency" depart="70.00">
        <route edges="C2B2 B2C2 C2C1 C1C0 C0D0"/>
    </vehicle>
    <vehicle id="emergency8" type="emergency_emergency" depart="80.00">
        <route edges="B0A0 A0A1 A1B1 B1C1 C1C0"/>
    </vehicle>
    <vehicle id="emergency9" type="emergency_emergency" depart="90.00">
        <route edges="D0C0 C0B0 B0A0 A0A1"/>
    </vehicle>
    <vehicle id="emergency10" type="emergency_emergency" depart="100.00">
        <route edges="D0C0 C0C1 C1C2 C2C3"/>
    </vehicle>
    <vehicle id="emergency11" type="emergency_emergency" depart="110.00">
        <route edges="B1C1 C1B1 B1A1 A1A2 A2B2"/>
    </vehicle>
    <vehicle id="emergency12" type="emergency_emergency" depart="120.00">
        <route edges="D2D3 D3C3 C3C2 C2C1 C1B1 B1C1"/>
    </vehicle>
    <vehicle id="emergency13" type="emergency_emergency" depart="130.00">
        <route edges="A1B1"/>
    </vehicle>
    <vehicle id="emergency14" type="emergency_emergency" depart="140.00">
        <route edges="D1C1 C1C0"/>
    </vehicle>
    <vehicle id="emergency15" type="emergency_emergency" depart="150.00">
        <route edges="D0C0 C0C1 C1C2 C2C3 C3B3"/>
    </vehicle>
    <vehicle id="emergency16" type="emergency_emergency" depart="160.00">
        <route edges="C0C1 C1C2 C2D2 D2D3 D3C3"/>
    </vehicle>
    <vehicle id="emergency17" type="emergency_emergency" depart="170.00">
        <route edges="B2B1 B1B0 B0C0 C0D0"/>
    </vehicle>
    <vehicle id="emergency18" type="emergency_emergency" depart="180.00">
        <route edges="D0D1 D1C1 C1C2"/>
    </vehicle>
    <vehicle id="emergency19" type="emergency_emergency" depart="190.00">
        <route edges="D1D0 D0C0 C0C1 C1B1"/>
    </vehicle>
    <vehicle id="emergency20" type="emergency_emergency" depart="200.00">
        <route edges="C2C3 C3B3 B3A3 A3A2 A2A1 A1A0"/>
    </vehicle>
    <vehicle id="emergency21" type="emergency_emergency" depart="210.00">
        <route edges="B0A0 A0A1 A1B1 B1A1"/>
    </vehicle>
    <vehicle id="emergency22" type="emergency_emergency" depart="220.00">
        <route edges="A1A2 A2B2 B2B1 B1B0 B0B1"/>
    </vehicle>
    <vehicle id="emergency23" type="emergency_emergency" depart="230.00">
        <route edges="A1B1 B1A1"/>
    </vehicle>
    <vehicle id="emergency24" type="emergency_emergency" depart="240.00">
        <route edges="C1D1 D1D2 D2C2 C2B2 B2A2"/>
    </vehicle>
    <vehicle id="emergency25" type="emergency_emergency" depart="250.00">
        <route edges="B2A2 A2B2 B2B1 B1B0 B0A0"/>
    </vehicle>
    <vehicle id="emergency26" type="emergency_emergency" depart="260.00">
        <route edges="B0C0 C0D0 D0D1 D1D2 D2D1"/>
    </vehicle>
    <vehicle id="emergency27" type="emergency_emergency" depart="270.00">
        <route edges="C2B2 B2C2 C2C1 C1C2"/>
    </vehicle>
    <vehicle id="emergency28" type="emergency_emergency" depart="280.00">
        <route edges="A3A2 A2B2 B2C2 C2D2"/>
    </vehicle>
    <vehicle id="emergency29" type="emergency_emergency" depart="290.00">
        <route edges="A2B2 B2B1"/>
    </vehicle>
    <vehicle id="emergency30" type="emergency_emergency" depart="300.00">
        <route edges="D3D2 D2D1 D1C1 C1D1"/>
    </vehicle>
    <vehicle id="emergency31" type="emergency_emergency" depart="310.00">
        <route edges="C0D0 D0D1 D1C1 C1C2 C2C1"/>
    </vehicle>
    <vehicle id="emergency32" type="emergency_emergency" depart="320.00">
        <route edges="D1C1 C1C2 C2C3 C3D3"/>
    </vehicle>
    <vehicle id="emergency33" type="emergency_emergency" depart="330.00">
        <route edges="B0A0 A0A1 A1A0 A0B0"/>
    </vehicle>
    <vehicle id="emergency34" type="emergency_emergency" depart="340.00">
        <route edges="B1B2 B2B1 B1B0 B0C0"/>
    </vehicle>
    <vehicle id="emergency35" type="emergency_emergency" depart="350.00">
        <route edges="B0A0 A0A1 A1A2 A2B2 B2C2 C2D2 D2D3"/>
    </vehicle>
    <vehicle id="emergency36" type="emergency_emergency" depart="360.00">
        <route edges="D1D2 D2D1 D1C1 C1B1 B1B2"/>
    </vehicle>
    <vehicle id="emergency37" type="emergency_emergency" depart="370.00">
        <route edges="C2B2 B2B1"/>
    </vehicle>
    <vehicle id="emergency38" type="emergency_emergency" depart="380.00">
        <route edges="D2C2 C2B2 B2B3 B3B2"/>
    </vehicle>
    <vehicle id="emergency39" type="emergency_emergency" depart="390.00">
        <route edges="B0C0 C0B0 B0B1"/>
    </vehicle>
    <vehicle id="emergency40" type="emergency_emergency" depart="400.00">
        <route edges="C0D0 D0D1 D1D0 D0C0 C0B0 B0C0"/>
    </vehicle>
    <vehicle id="emergency41" type="emergency_emergency" depart="410.00">
        <route edges="C1C0 C0D0 D0D1 D1D2 D2C2"/>
    </vehicle>
    <vehicle id="emergency42" type="emergency_emergency" depart="420.00">
        <route edges="B2B3 B3B2 B2B1 B1B0 B0A0"/>
    </vehicle>
    <vehicle id="emergency43" type="emergency_emergency" depart="430.00">
        <route edges="D3D2 D2D1 D1D0 D0C0 C0B0"/>
    </vehicle>
    <vehicle id="emergency44" type="emergency_emergency" depart="440.00">
        <route edges="A1B1 B1A1 A1A0"/>
    </vehicle>
    <vehicle id="emergency45" type="emergency_emergency" depart="450.00">
        <route edges="A2A1 A1B1 B1C1 C1D1"/>
    </vehicle>
    <vehicle id="emergency46" type="emergency_emergency" depart="460.00">
        <route edges="D0C0 C0B0 B0B1 B1B2 B2C2"/>
    </vehicle>
    <vehicle id="emergency47" type="emergency_emergency" depart="470.00">
        <route edges="A1A2 A2B2 B2B1"/>
    </vehicle>
    <vehicle id="emergency48" type="emergency_emergency" depart="480.00">
        <route edges="D3D2 D2D1 D1D0 D0C0 C0C1"/>
    </vehicle>
    <vehicle id="emergency49" type="emergency_emergency" depart="490.00">
        <route edges="D3C3 C3D3 D3D2 D2D1 D1D0"/>
    </vehicle>
    <vehicle id="emergency50" type="emergency_emergency" depart="500.00">
        <route edges="A0A1 A1A2 A2B2 B2C2 C2D2"/>
    </vehicle>
    <vehicle id="emergency51" type="emergency_emergency" depart="510.00">
        <route edges="C2C1 C1C0 C0C1"/>
    </vehicle>
    <vehicle id="emergency52" type="emergency_emergency" depart="520.00">
        <route edges="B0C0 C0C1 C1D1"/>
    </vehicle>
    <vehicle id="emergency53" type="emergency_emergency" depart="530.00">
        <route edges="A2A1 A1A2 A2B2 B2C2"/>
    </vehicle>
    <vehicle id="emergency54" type="emergency_emergency" depart="540.00">
        <route edges="B3A3 A3A2 A2B2 B2C2 C2D2 D2D3"/>
    </vehicle>
    <vehicle id="emergency55" type="emergency_emergency" depart="550.00">
        <route edges="D1D2 D2D1 D1D0 D0C0 C0B0 B0C0"/>
    </vehicle>
    <vehicle id="emergency56" type="emergency_emergency" depart="560.00">
        <route edges="C0B0 B0B1 B1B2 B2B3 B3A3 A3A2"/>
    </vehicle>
    <vehicle id="emergency57" type="emergency_emergency" depart="570.00">
        <route edges="D2C2 C2D2 D2D1 D1D0"/>
    </vehicle>
    <vehicle id="emergency58" type="emergency_emergency" depart="580.00">
        <route edges="B1B0 B0B1 B1C1 C1D1"/>
    </vehicle>
    <vehicle id="emergency59" type="emergency_emergency" depart="590.00">
        <route edges="C1C2 C2B2 B2A2 A2B2"/>
    </vehicle>
    <vehicle id="emergency60" type="emergency_emergency" depart="600.00">
        <route edges="C3C2 C2C1 C1C0 C0C1"/>
    </vehicle>
    <vehicle id="emergency61" type="emergency_emergency" depart="610.00">
        <route edges="C3D3 D3D2 D2D1 D1D0 D0C0 C0C1"/>
    </vehicle>
    <vehicle id="emergency62" type="emergency_emergency" depart="620.00">
        <route edges="A0A1 A1B1 B1B2"/>
    </vehicle>
    <vehicle id="emergency63" type="emergency_emergency" depart="630.00">
        <route edges="A0A1 A1A2 A2B2 B2C2 C2D2 D2D1"/>
    </vehicle>
    <vehicle id="emergency64" type="emergency_emergency" depart="640.00">
        <route edges="D1D2 D2D1 D1D0 D0C0 C0D0 D0D1"/>
    </vehicle>
    <vehicle id="emergency65" type="emergency_emergency" depart="650.00">
        <route edges="B1B0 B0A0 A0A1 A1A0"/>
    </vehicle>
    <vehicle id="emergency66" type="emergency_emergency" depart="660.00">
        <route edges="D1D2 D2D3"/>
    </vehicle>
    <vehicle id="emergency67" type="emergency_emergency" depart="670.00">
        <route edges="A1B1 B1B2 B2B3 B3C3"/>
    </vehicle>
    <vehicle id="emergency68" type="emergency_emergency" depart="680.00">
        <route edges="A1A2 A2A3 A3B3 B3C3 C3C2"/>
    </vehicle>
    <vehicle id="emergency69" type="emergency_emergency" depart="690.00">
        <route edges="C3C2 C2B2 B2A2 A2A3"/>
    </vehicle>
    <vehicle id="emergency70" type="emergency_emergency" depart="700.00">
        <route edges="B3B2 B2B1 B1B0 B0C0 C0D0"/>
    </vehicle>
    <vehicle id="emergency71" type="emergency_emergency" depart="710.00">
        <route edges="B0C0 C0D0 D0D1 D1D0"/>
    </vehicle>
    <vehicle id="emergency72" type="emergency_emergency" depart="720.00">
        <route edges="B2C2 C2C1 C1C0 C0B0 B0A0"/>
    </vehicle>
    <vehicle id="emergency73" type="emergency_emergency" depart="730.00">
        <route edges="C0C1 C1C2 C2C3 C3B3"/>
    </vehicle>
    <vehicle id="emergency74" type="emergency_emergency" depart="740.00">
        <route edges="A3B3 B3B2 B2B1 B1B0"/>
    </vehicle>
    <vehicle id="emergency75" type="emergency_emergency" depart="750.00">
        <route edges="D3D2 D2C2 C2B2"/>
    </vehicle>
    <vehicle id="emergency76" type="emergency_emergency" depart="760.00">
        <route edges="B3A3 A3A2 A2A1 A1A0 A0B0 B0C0 C0B0"/>
    </vehicle>
    <vehicle id="emergency77" type="emergency_emergency" depart="770.00">
        <route edges="A2A1 A1A0 A0B0 B0A0"/>
    </vehicle>
    <vehicle id="emergency78" type="emergency_emergency" depart="780.00">
        <route edges="B1C1 C1C0"/>
    </vehicle>
    <vehicle id="emergency79" type="emergency_emergency" depart="790.00">
        <route edges="B0B1 B1B0 B0A0"/>
    </vehicle>
    <vehicle id="emergency80" type="emergency_emergency" depart="800.00">
        <route edges="A1A2 A2B2 B2C2 C2C1 C1D1"/>
    </vehicle>
    <vehicle id="emergency81" type="emergency_emergency" depart="810.00">
        <route edges="B0A0 A0A1 A1A2 A2B2 B2C2 C2D2 D2C2"/>
    </vehicle>
    <vehicle id="emergency82" type="emergency_emergency" depart="820.00">
        <route edges="D1D0 D0C0 C0B0 B0A0 A0A1 A1A2"/>
    </vehicle>
    <vehicle id="emergency83" type="emergency_emergency" depart="830.00">
        <route edges="B0B1 B1B2 B2C2 C2C1"/>
    </vehicle>
    <vehicle id="emergency84" type="emergency_emergency" depart="840.00">
        <route edges="B0A0 A0A1 A1A2 A2A3"/>
    </vehicle>
    <vehicle id="emergency85" type="emergency_emergency" depart="850.00">
        <route edges="D2D1 D1C1 C1B1"/>
    </vehicle>
    <vehicle id="emergency86" type="emergency_emergency" depart="860.00">
        <route edges="B3B2 B2B3 B3C3 C3D3"/>
    </vehicle>
    <vehicle id="emergency87" type="emergency_emergency" depart="870.00">
        <route edges="D0C0 C0B0 B0A0 A0A1 A1A2 A2A3 A3B3"/>
    </vehicle>
    <vehicle id="emergency88" type="emergency_emergency" depart="880.00">
        <route edges="A1B1 B1B2 B2C2"/>
    </vehicle>
    <vehicle id="emergency89" type="emergency_emergency" depart="890.00">
        <route edges="B2C2 C2B2 B2B3 B3B2"/>
    </vehicle>
    <vehicle id="emergency90" type="emergency_emergency" depart="900.00">
        <route edges="C2D2 D2C2 C2C1"/>
    </vehicle>
    <vehicle id="emergency91" type="emergency_emergency" depart="910.00">
        <route edges="D3D2 D2D1 D1C1 C1B1 B1A1 A1B1"/>
    </vehicle>
    <vehicle id="emergency92" type="emergency_emergency" depart="920.00">
        <route edges="B2B3 B3B2 B2B1 B1C1"/>
    </vehicle>
    <vehicle id="emergency93" type="emergency_emergency" depart="930.00">
        <route edges="D1D0 D0C0 C0B0 B0B1"/>
    </vehicle>
    <vehicle id="emergency94" type="emergency_emergency" depart="940.00">
        <route edges="A3B3 B3A3"/>
    </vehicle>
    <vehicle id="emergency95" type="emergency_emergency" depart="950.00">
        <route edges="B2C2 C2C1 C1B1 B1A1"/>
    </vehicle>
    <vehicle id="emergency96" type="emergency_emergency" depart="960.00">
        <route edges="B0B1 B1B2 B2C2 C2D2 D2D1"/>
    </vehicle>
    <vehicle id="emergency97" type="emergency_emergency" depart="970.00">
        <route edges="B3A3 A3A2 A2A1 A1B1 B1C1 C1D1 D1D0"/>
    </vehicle>
    <vehicle id="emergency98" type="emergency_emergency" depart="980.00">
        <route edges="C0D0 D0D1 D1C1 C1B1 B1A1 A1A0"/>
    </vehicle>
    <vehicle id="emergency99" type="emergency_emergency" depart="990.00">
        <route edges="D3D2 D2D1 D1C1"/>
    </vehicle>
    <vehicle id="emergency100" type="emergency_emergency" depart="1000.00">
        <route edges="D3C3 C3D3 D3D2 D2D1"/>
    </vehicle>
    <vehicle id="emergency101" type="emergency_emergency" depart="1010.00">
        <route edges="D1C1 C1B1 B1A1 A1A2 A2B2"/>
    </vehicle>
    <vehicle id="emergency102" type="emergency_emergency" depart="1020.00">
        <route edges="B3C3 C3C2 C2C1 C1C0 C0B0 B0A0"/>
    </vehicle>
    <vehicle id="emergency103" type="emergency_emergency" depart="1030.00">
        <route edges="B2B3 B3A3 A3A2 A2A1 A1A0"/>
    </vehicle>
    <vehicle id="emergency104" type="emergency_emergency" depart="1040.00">
        <route edges="B2B1 B1B2 B2B3 B3C3 C3D3 D3D2"/>
    </vehicle>
    <vehicle id="emergency105" type="emergency_emergency" depart="1050.00">
        <route edges="B0C0 C0C1 C1C2 C2C3 C3D3"/>
    </vehicle>
    <vehicle id="emergency106" type="emergency_emergency" depart="1060.00">
        <route edges="B3A3 A3A2 A2B2 B2C2"/>
    </vehicle>
    <vehicle id="emergency107" type="emergency_emergency" depart="1070.00">
        <route edges="D2D3 D3C3 C3D3 D3D2"/>
    </vehicle>
    <vehicle id="emergency108" type="emergency_emergency" depart="1080.00">
        <route edges="C0D0 D0D1 D1C1 C1C2 C2D2"/>
    </vehicle>
    <vehicle id="emergency109" type="emergency_emergency" depart="1090.00">
        <route edges="A2B2 B2B1 B1B0"/>
    </vehicle>
    <vehicle id="emergency110" type="emergency_emergency" depart="1100.00">
        <route edges="D3C3 C3C2 C2C1 C1B1"/>
    </vehicle>
    <vehicle id="emergency111" type="emergency_emergency" depart="1110.00">
        <route edges="C0D0 D0D1 D1D2 D2D3 D3C3 C3B3"/>
    </vehicle>
    <vehicle id="emergency112" type="emergency_emergency" depart="1120.00">
        <route edges="A1A0 A0B0 B0B1 B1C1 C1C0"/>
    </vehicle>
    <vehicle id="emergency113" type="emergency_emergency" depart="1130.00">
        <route edges="C0B0 B0B1 B1C1 C1D1 D1C1"/>
    </vehicle>
    <vehicle id="emergency114" type="emergency_emergency" depart="1140.00">
        <route edges="A2B2 B2C2 C2D2 D2D3 D3C3"/>
    </vehicle>
    <vehicle id="emergency115" type="emergency_emergency" depart="1150.00">
        <route edges="A1A2 A2A3 A3B3 B3A3 A3A2"/>
    </vehicle>
    <vehicle id="emergency116" type="emergency_emergency" depart="1160.00">
        <route edges="C1C0 C0C1 C1C2 C2C1"/>
    </vehicle>
    <vehicle id="emergency117" type="emergency_emergency" depart="1170.00">
        <route edges="B0B1 B1B2 B2A2 A2A1"/>
    </vehicle>
    <vehicle id="emergency118" type="emergency_emergency" depart="1180.00">
        <route edges="D1D2 D2D1 D1D0 D0C0 C0B0 B0B1"/>
    </vehicle>
    <vehicle id="emergency119" type="emergency_emergency" depart="1190.00">
        <route edges="C1C0 C0C1 C1C2"/>
    </vehicle>
    <vehicle id="emergency120" type="emergency_emergency" depart="1200.00">
        <route edges="B2C2 C2C1 C1C0"/>
    </vehicle>
    <vehicle id="emergency121" type="emergency_emergency" depart="1210.00">
        <route edges="C0C1 C1C2 C2D2 D2D1"/>
    </vehicle>
    <vehicle id="emergency122" type="emergency_emergency" depart="1220.00">
        <route edges="A3B3 B3C3 C3C2 C2D2"/>
    </vehicle>
    <vehicle id="emergency123" type="emergency_emergency" depart="1230.00">
        <route edges="B0B1 B1B2 B2B1"/>
    </vehicle>
    <vehicle id="emergency124" type="emergency_emergency" depart="1240.00">
        <route edges="C2C1 C1B1 B1B0"/>
    </vehicle>
    <vehicle id="emergency125" type="emergency_emergency" depart="1250.00">
        <route edges="B1B2 B2B3 B3C3 C3C2"/>
    </vehicle>
    <vehicle id="emergency126" type="emergency_emergency" depart="1260.00">
        <route edges="A1A2 A2A3 A3B3 B3A3"/>
    </vehicle>
    <vehicle id="emergency127" type="emergency_emergency" depart="1270.00">
        <route edges="D3D2"/>
    </vehicle>
    <vehicle id="emergency128" type="emergency_emergency" depart="1280.00">
        <route edges="A1A2 A2B2 B2B1 B1B0 B0A0"/>
    </vehicle>
    <vehicle id="emergency129" type="emergency_emergency" depart="1290.00">
        <route edges="B0C0 C0D0 D0D1 D1D2 D2D1"/>
    </vehicle>
    <vehicle id="emergency130" type="emergency_emergency" depart="1300.00">
        <route edges="D1D2"/>
    </vehicle>
    <vehicle id="emergency131" type="emergency_emergency" depart="1310.00">
        <route edges="B2A2 A2B2"/>
    </vehicle>
    <vehicle id="emergency132" type="emergency_emergency" depart="1320.00">
        <route edges="D1C1 C1C2 C2C3"/>
    </vehicle>
    <vehicle id="emergency133" type="emergency_emergency" depart="1330.00">
        <route edges="C1C2 C2C3 C3D3 D3D2"/>
    </vehicle>
    <vehicle id="emergency134" type="emergency_emergency" depart="1340.00">
        <route edges="C2B2 B2B1 B1B0 B0A0 A0A1"/>
    </vehicle>
    <vehicle id="emergency135" type="emergency_emergency" depart="1350.00">
        <route edges="D0D1 D1C1 C1B1 B1B0"/>
    </vehicle>
    <vehicle id="emergency136" type="emergency_emergency" depart="1360.00">
        <route edges="C2B2 B2C2 C2D2 D2D3"/>
    </vehicle>
    <vehicle id="emergency137" type="emergency_emergency" depart="1370.00">
        <route edges="A2A3 A3B3 B3B2 B2A2 A2A1"/>
    </vehicle>
    <vehicle id="emergency138" type="emergency_emergency" depart="1380.00">
        <route edges="A2A1 A1A0 A0B0 B0C0 C0D0"/>
    </vehicle>
    <vehicle id="emergency139" type="emergency_emergency" depart="1390.00">
        <route edges="B1A1 A1B1 B1C1 C1C2"/>
    </vehicle>
    <vehicle id="emergency140" type="emergency_emergency" depart="1400.00">
        <route edges="C2D2 D2C2 C2B2 B2A2 A2A3 A3B3"/>
    </vehicle>
    <vehicle id="emergency141" type="emergency_emergency" depart="1410.00">
        <route edges="C1D1 D1D0 D0C0 C0B0 B0C0"/>
    </vehicle>
    <vehicle id="emergency142" type="emergency_emergency" depart="1420.00">
        <route edges="B3C3 C3D3 D3D2 D2C2"/>
    </vehicle>
    <vehicle id="emergency143" type="emergency_emergency" depart="1430.00">
        <route edges="D1C1 C1B1 B1A1 A1B1"/>
    </vehicle>
    <vehicle id="emergency144" type="emergency_emergency" depart="1440.00">
        <route edges="B2C2 C2C1 C1B1 B1A1"/>
    </vehicle>
    <vehicle id="emergency145" type="emergency_emergency" depart="1450.00">
        <route edges="A0A1 A1A2 A2A3 A3B3 B3C3 C3D3"/>
    </vehicle>
    <vehicle id="emergency146" type="emergency_emergency" depart="1460.00">
        <route edges="C1D1 D1D0 D0C0 C0B0 B0C0"/>
    </vehicle>
    <vehicle id="emergency147" type="emergency_emergency" depart="1470.00">
        <route edges="C3B3 B3C3 C3C2 C2C1 C1C0 C0D0"/>
    </vehicle>
    <vehicle id="emergency148" type="emergency_emergency" depart="1480.00">
        <route edges="B2C2 C2C1 C1C0 C0B0 B0A0 A0A1"/>
    </vehicle>
    <vehicle id="emergency149" type="emergency_emergency" depart="1490.00">
        <route edges="A1A2 A2B2 B2C2 C2D2 D2D1 D1D2"/>
    </vehicle>
    <vehicle id="emergency150" type="emergency_emergency" depart="1500.00">
        <route edges="D2C2 C2C1 C1C0 C0D0"/>
    </vehicle>
    <vehicle id="emergency151" type="emergency_emergency" depart="1510.00">
        <route edges="D1C1 C1B1"/>
    </vehicle>
    <vehicle id="emergency152" type="emergency_emergency" depart="1520.00">
        <route edges="A2B2 B2A2 A2A3"/>
    </vehicle>
    <vehicle id="emergency153" type="emergency_emergency" depart="1530.00">
        <route edges="B1B0 B0C0 C0D0 D0D1 D1D2 D2C2"/>
    </vehicle>
    <vehicle id="emergency154" type="emergency_emergency" depart="1540.00">
        <route edges="D0C0 C0C1 C1D1 D1D0"/>
    </vehicle>
    <vehicle id="emergency155" type="emergency_emergency" depart="1550.00">
        <route edges="D2C2 C2B2 B2B1 B1B0 B0A0"/>
    </vehicle>
    <vehicle id="emergency156" type="emergency_emergency" depart="1560.00">
        <route edges="B0B1 B1A1 A1B1"/>
    </vehicle>
    <vehicle id="emergency157" type="emergency_emergency" depart="1570.00">
        <route edges="C3D3 D3D2 D2D1 D1D2"/>
    </vehicle>
    <vehicle id="emergency158" type="emergency_emergency" depart="1580.00">
        <route edges="B2B3 B3C3 C3C2 C2C1 C1C2"/>
    </vehicle>
    <vehicle id="emergency159" type="emergency_emergency" depart="1590.00">
        <route edges="A2B2 B2C2 C2D2 D2D1"/>
    </vehicle>
    <vehicle id="emergency160" type="emergency_emergency" depart="1600.00">
        <route edges="D1D0 D0C0 C0C1 C1C2 C2D2 D2D3 D3C3"/>
    </vehicle>
    <vehicle id="emergency161" type="emergency_emergency" depart="1610.00">
        <route edges="D0C0 C0C1 C1D1 D1D2"/>
    </vehicle>
    <vehicle id="emergency162" type="emergency_emergency" depart="1620.00">
        <route edges="A0B0 B0C0 C0C1 C1C2 C2C3 C3B3"/>
    </vehicle>
    <vehicle id="emergency163" type="emergency_emergency" depart="1630.00">
        <route edges="B1B2 B2C2 C2D2 D2D1"/>
    </vehicle>
    <vehicle id="emergency164" type="emergency_emergency" depart="1640.00">
        <route edges="D0C0 C0C1 C1D1 D1D0"/>
    </vehicle>
    <vehicle id="emergency165" type="emergency_emergency" depart="1650.00">
        <route edges="D0C0 C0B0 B0C0"/>
    </vehicle>
    <vehicle id="emergency166" type="emergency_emergency" depart="1660.00">
        <route edges="C3D3 D3D2 D2C2 C2B2 B2A2 A2A1"/>
    </vehicle>
    <vehicle id="emergency167" type="emergency_emergency" depart="1670.00">
        <route edges="D1D0"/>
    </vehicle>
    <vehicle id="emergency168" type="emergency_emergency" depart="1680.00">
        <route edges="B0A0 A0A1 A1B1 B1C1 C1C0 C0D0 D0D1"/>
    </vehicle>
    <vehicle id="emergency169" type="emergency_emergency" depart="1690.00">
        <route edges="B3B2 B2B1 B1B0"/>
    </vehicle>
    <vehicle id="emergency170" type="emergency_emergency" depart="1700.00">
        <route edges="D0C0 C0B0 B0A0"/>
    </vehicle>
    <vehicle id="emergency171" type="emergency_emergency" depart="1710.00">
        <route edges="A0B0 B0A0 A0A1 A1A2 A2A3 A3B3"/>
    </vehicle>
    <vehicle id="emergency172" type="emergency_emergency" depart="1720.00">
        <route edges="B1B2 B2C2 C2D2 D2D1 D1D0"/>
    </vehicle>
    <vehicle id="emergency173" type="emergency_emergency" depart="1730.00">
        <route edges="D3C3 C3B3 B3B2 B2B1 B1A1"/>
    </vehicle>
    <vehicle id="emergency174" type="emergency_emergency" depart="1740.00">
        <route edges="C1D1 D1C1 C1B1 B1B2 B2B3"/>
    </vehicle>
    <vehicle id="emergency175" type="emergency_emergency" depart="1750.00">
        <route edges="D3D2 D2D1 D1D0 D0C0 C0C1"/>
    </vehicle>
    <vehicle id="emergency176" type="emergency_emergency" depart="1760.00">
        <route edges="D2D3 D3C3 C3B3 B3A3 A3A2 A2A1"/>
    </vehicle>
    <vehicle id="emergency177" type="emergency_emergency" depart="1770.00">
        <route edges="D3C3 C3B3 B3A3 A3A2"/>
    </vehicle>
    <vehicle id="emergency178" type="emergency_emergency" depart="1780.00">
        <route edges="D3C3 C3B3 B3B2 B2B1 B1B0 B0C0"/>
    </vehicle>
    <vehicle id="emergency179" type="emergency_emergency" depart="1790.00">
        <route edges="A2A1 A1A2 A2B2 B2C2"/>
    </vehicle>
    <vehicle id="emergency180" type="emergency_emergency" depart="1800.00">
        <route edges="C2D2 D2D1 D1C1 C1B1 B1B2"/>
    </vehicle>
    <vehicle id="emergency181" type="emergency_emergency" depart="1810.00">
        <route edges="C1C2 C2C1 C1C0 C0B0"/>
    </vehicle>
    <vehicle id="emergency182" type="emergency_emergency" depart="1820.00">
        <route edges="B2B1 B1C1 C1B1"/>
    </vehicle>
    <vehicle id="emergency183" type="emergency_emergency" depart="1830.00">
        <route edges="B0C0 C0C1 C1C2 C2D2"/>
    </vehicle>
    <vehicle id="emergency184" type="emergency_emergency" depart="1840.00">
        <route edges="A0A1 A1A2 A2B2 B2C2 C2D2 D2D1"/>
    </vehicle>
    <vehicle id="emergency185" type="emergency_emergency" depart="1850.00">
        <route edges="C0C1 C1C2 C2D2"/>
    </vehicle>
    <vehicle id="emergency186" type="emergency_emergency" depart="1860.00">
        <route edges="C3B3 B3C3 C3C2 C2C1"/>
    </vehicle>
    <vehicle id="emergency187" type="emergency_emergency" depart="1870.00">
        <route edges="B2A2 A2A1 A1A2"/>
    </vehicle>
    <vehicle id="emergency188" type="emergency_emergency" depart="1880.00">
        <route edges="C2B2 B2B1 B1B2"/>
    </vehicle>
    <vehicle id="emergency189" type="emergency_emergency" depart="1890.00">
        <route edges="B1B2 B2C2 C2D2 D2D1 D1C1"/>
    </vehicle>
    <vehicle id="emergency190" type="emergency_emergency" depart="1900.00">
        <route edges="C2D2 D2D1 D1C1 C1B1 B1B0"/>
    </vehicle>
    <vehicle id="emergency191" type="emergency_emergency" depart="1910.00">
        <route edges="B1B0 B0B1 B1B2 B2B3"/>
    </vehicle>
    <vehicle id="emergency192" type="emergency_emergency" depart="1920.00">
        <route edges="B2B3 B3B2 B2B1 B1B0"/>
    </vehicle>
    <vehicle id="emergency193" type="emergency_emergency" depart="1930.00">
        <route edges="A2A3 A3B3 B3B2 B2C2"/>
    </vehicle>
    <vehicle id="emergency194" type="emergency_emergency" depart="1940.00">
        <route edges="D2D3 D3C3 C3C2 C2C1"/>
    </vehicle>
    <vehicle id="emergency195" type="emergency_emergency" depart="1950.00">
        <route edges="D2C2 C2C1 C1C2"/>
    </vehicle>
    <vehicle id="emergency196" type="emergency_emergency" depart="1960.00">
        <route edges="B1B0 B0C0 C0D0"/>
    </vehicle>
    <vehicle id="emergency197" type="emergency_emergency" depart="1970.00">
        <route edges="A0A1 A1B1 B1A1"/>
    </vehicle>
    <vehicle id="emergency198" type="emergency_emergency" depart="1980.00">
        <route edges="B2C2 C2C1 C1B1"/>
    </vehicle>
    <vehicle id="emergency199" type="emergency_emergency" depart="1990.00">
        <route edges="C2B2 B2B3 B3B2"/>
    </vehicle>
    <vehicle id="emergency200" type="emergency_emergency" depart="2000.00">
        <route edges="B3A3 A3A2 A2A1 A1A0 A0B0 B0A0"/>
    </vehicle>
    <vehicle id="emergency201" type="emergency_emergency" depart="2010.00">
        <route edges="B3B2 B2C2 C2D2 D2C2"/>
    </vehicle>
    <vehicle id="emergency202" type="emergency_emergency" depart="2020.00">
        <route edges="D0C0 C0B0 B0B1 B1B2 B2B3 B3A3 A3A2"/>
    </vehicle>
    <vehicle id="emergency203" type="emergency_emergency" depart="2030.00">
        <route edges="A1B1 B1C1 C1C0 C0B0"/>
    </vehicle>
    <vehicle id="emergency204" type="emergency_emergency" depart="2040.00">
        <route edges="C1D1 D1C1 C1B1 B1C1"/>
    </vehicle>
    <vehicle id="emergency205" type="emergency_emergency" depart="2050.00">
        <route edges="D0D1 D1D2 D2D3 D3C3 C3C2"/>
    </vehicle>
    <vehicle id="emergency206" type="emergency_emergency" depart="2060.00">
        <route edges="C2C1 C1C0 C0B0 B0A0"/>
    </vehicle>
    <vehicle id="emergency207" type="emergency_emergency" depart="2070.00">
        <route edges="A3B3 B3B2 B2B1 B1A1 A1A0 A0B0"/>
    </vehicle>
    <vehicle id="emergency208" type="emergency_emergency" depart="2080.00">
        <route edges="B0B1 B1B2 B2B3 B3B2"/>
    </vehicle>