<?xml version="1.0" encoding="UTF-8"?>

<!-- generated on 2024-02-26 22:04:56.205711 by randomTrips.py UNKNOWN
<configuration>
    <net-file value="cenary.net.xml"/>
    <output-trip-file value="odtrips.car.xml"/>
    <route-file value="cenary.car.rou.xml"/>
    <prefix value="car"/>
    <trip-attributes value="color=&quot;0,0,1&quot;"/>
    <period value="2.0"/>
</configuration>
-->

<!-- generated on 2024-02-26 22:04:55 by Eclipse SUMO duarouter Version 1.19.0
<configuration xmlns:xsi="http://www.w3.org/2001/XMLSchema-instance" xsi:noNamespaceSchemaLocation="http://sumo.dlr.de/xsd/duarouterConfiguration.xsd">

    <input>
        <net-file value="cenary.net.xml"/>
        <route-files value="odtrips.car.xml"/>
    </input>

    <output>
        <output-file value="cenary.car.rou.xml"/>
        <alternatives-output value="NUL"/>
    </output>

    <time>
        <begin value="0"/>
        <end value="3600"/>
    </time>

    <report>
        <no-warnings value="true"/>
        <ignore-errors value="true"/>
        <no-step-log value="true"/>
    </report>

</configuration>
-->

<routes xmlns:xsi="http://www.w3.org/2001/XMLSchema-instance" xsi:noNamespaceSchemaLocation="http://sumo.dlr.de/xsd/routes_file.xsd">
    <vehicle id="car0" depart="0.00" color="blue">
        <route edges="C1D1 D1C1 C1B1 B1A1 A1A0 A0B0"/>
    </vehicle>
    <vehicle id="car1" depart="2.00" color="blue">
        <route edges="B1A1 A1B1 B1B0 B0A0"/>
    </vehicle>
    <vehicle id="car2" depart="4.00" color="blue">
        <route edges="C3B3 B3C3 C3C2 C2C1"/>
    </vehicle>
    <vehicle id="car3" depart="6.00" color="blue">
        <route edges="D1D2 D2D1 D1C1 C1B1 B1A1 A1B1"/>
    </vehicle>
    <vehicle id="car4" depart="8.00" color="blue">
        <route edges="B2C2 C2C1 C1B1 B1A1 A1A0 A0B0"/>
    </vehicle>
    <vehicle id="car5" depart="10.00" color="blue">
        <route edges="B0A0 A0A1 A1B1 B1C1 C1C0 C0B0"/>
    </vehicle>
    <vehicle id="car6" depart="12.00" color="blue">
        <route edges="A0B0 B0A0 A0A1 A1A2 A2A3 A3B3"/>
    </vehicle>
    <vehicle id="car7" depart="14.00" color="blue">
        <route edges="C2B2 B2C2 C2C1 C1C0 C0D0"/>
    </vehicle>
    <vehicle id="car8" depart="16.00" color="blue">
        <route edges="B0A0 A0A1 A1B1 B1C1 C1C0"/>
    </vehicle>
    <vehicle id="car9" depart="18.00" color="blue">
        <route edges="D0C0 C0B0 B0A0 A0A1"/>
    </vehicle>
    <vehicle id="car10" depart="20.00" color="blue">
        <route edges="D0C0 C0C1 C1C2 C2C3"/>
    </vehicle>
    <vehicle id="car11" depart="22.00" color="blue">
        <route edges="B1C1 C1B1 B1A1 A1A2 A2B2"/>
    </vehicle>
    <vehicle id="car12" depart="24.00" color="blue">
        <route edges="D2D3 D3C3 C3C2 C2C1 C1B1 B1C1"/>
    </vehicle>
    <vehicle id="car13" depart="26.00" color="blue">
        <route edges="A1B1"/>
    </vehicle>
    <vehicle id="car14" depart="28.00" color="blue">
        <route edges="D1C1 C1C0"/>
    </vehicle>
    <vehicle id="car15" depart="30.00" color="blue">
        <route edges="D0C0 C0C1 C1C2 C2C3 C3B3"/>
    </vehicle>
    <vehicle id="car16" depart="32.00" color="blue">
        <route edges="C0C1 C1C2 C2D2 D2D3 D3C3"/>
    </vehicle>
    <vehicle id="car17" depart="34.00" color="blue">
        <route edges="B2B1 B1B0 B0C0 C0D0"/>
    </vehicle>
    <vehicle id="car18" depart="36.00" color="blue">
        <route edges="D0D1 D1C1 C1C2"/>
    </vehicle>
    <vehicle id="car19" depart="38.00" color="blue">
        <route edges="D1D0 D0C0 C0C1 C1B1"/>
    </vehicle>
    <vehicle id="car20" depart="40.00" color="blue">
        <route edges="C2C3 C3B3 B3A3 A3A2 A2A1 A1A0"/>
    </vehicle>
    <vehicle id="car21" depart="42.00" color="blue">
        <route edges="B0A0 A0A1 A1B1 B1A1"/>
    </vehicle>
    <vehicle id="car22" depart="44.00" color="blue">
        <route edges="A1A2 A2B2 B2B1 B1B0 B0B1"/>
    </vehicle>
    <vehicle id="car23" depart="46.00" color="blue">
        <route edges="A1B1 B1A1"/>
    </vehicle>
    <vehicle id="car24" depart="48.00" color="blue">
        <route edges="C1D1 D1D2 D2C2 C2B2 B2A2"/>
    </vehicle>
    <vehicle id="car25" depart="50.00" color="blue">
        <route edges="B2A2 A2B2 B2B1 B1B0 B0A0"/>
    </vehicle>
    <vehicle id="car26" depart="52.00" color="blue">
        <route edges="B0C0 C0D0 D0D1 D1D2 D2D1"/>
    </vehicle>
    <vehicle id="car27" depart="54.00" color="blue">
        <route edges="C2B2 B2C2 C2C1 C1C2"/>
    </vehicle>
    <vehicle id="car28" depart="56.00" color="blue">
        <route edges="A3A2 A2B2 B2C2 C2D2"/>
    </vehicle>
    <vehicle id="car29" depart="58.00" color="blue">
        <route edges="A2B2 B2B1"/>
    </vehicle>
    <vehicle id="car30" depart="60.00" color="blue">
        <route edges="D3D2 D2D1 D1C1 C1D1"/>
    </vehicle>
    <vehicle id="car31" depart="62.00" color="blue">
        <route edges="C0D0 D0D1 D1C1 C1C2 C2C1"/>
    </vehicle>
    <vehicle id="car32" depart="64.00" color="blue">
        <route edges="D1C1 C1C2 C2C3 C3D3"/>
    </vehicle>
    <vehicle id="car33" depart="66.00" color="blue">
        <route edges="B0A0 A0A1 A1A0 A0B0"/>
    </vehicle>
    <vehicle id="car34" depart="68.00" color="blue">
        <route edges="B1B2 B2B1 B1B0 B0C0"/>
    </vehicle>
    <vehicle id="car35" depart="70.00" color="blue">
        <route edges="B0A0 A0A1 A1A2 A2B2 B2C2 C2D2 D2D3"/>
    </vehicle>
    <vehicle id="car36" depart="72.00" color="blue">
        <route edges="D1D2 D2D1 D1C1 C1B1 B1B2"/>
    </vehicle>
    <vehicle id="car37" depart="74.00" color="blue">
        <route edges="C2B2 B2B1"/>
    </vehicle>
    <vehicle id="car38" depart="76.00" color="blue">
        <route edges="D2C2 C2B2 B2B3 B3B2"/>
    </vehicle>
    <vehicle id="car39" depart="78.00" color="blue">
        <route edges="B0C0 C0B0 B0B1"/>
    </vehicle>
    <vehicle id="car40" depart="80.00" color="blue">
        <route edges="C0D0 D0D1 D1D0 D0C0 C0B0 B0C0"/>
    </vehicle>
    <vehicle id="car41" depart="82.00" color="blue">
        <route edges="C1C0 C0D0 D0D1 D1D2 D2C2"/>
    </vehicle>
    <vehicle id="car42" depart="84.00" color="blue">
        <route edges="B2B3 B3B2 B2B1 B1B0 B0A0"/>
    </vehicle>
    <vehicle id="car43" depart="86.00" color="blue">
        <route edges="D3D2 D2D1 D1D0 D0C0 C0B0"/>
    </vehicle>
    <vehicle id="car44" depart="88.00" color="blue">
        <route edges="A1B1 B1A1 A1A0"/>
    </vehicle>
    <vehicle id="car45" depart="90.00" color="blue">
        <route edges="A2A1 A1B1 B1C1 C1D1"/>
    </vehicle>
    <vehicle id="car46" depart="92.00" color="blue">
        <route edges="D0C0 C0B0 B0B1 B1B2 B2C2"/>
    </vehicle>
    <vehicle id="car47" depart="94.00" color="blue">
        <route edges="A1A2 A2B2 B2B1"/>
    </vehicle>
    <vehicle id="car48" depart="96.00" color="blue">
        <route edges="D3D2 D2D1 D1D0 D0C0 C0C1"/>
    </vehicle>
    <vehicle id="car49" depart="98.00" color="blue">
        <route edges="D3C3 C3D3 D3D2 D2D1 D1D0"/>
    </vehicle>
    <vehicle id="car50" depart="100.00" color="blue">
        <route edges="A0A1 A1A2 A2B2 B2C2 C2D2"/>
    </vehicle>
    <vehicle id="car51" depart="102.00" color="blue">
        <route edges="C2C1 C1C0 C0C1"/>
    </vehicle>
    <vehicle id="car52" depart="104.00" color="blue">
        <route edges="B0C0 C0C1 C1D1"/>
    </vehicle>
    <vehicle id="car53" depart="106.00" color="blue">
        <route edges="A2A1 A1A2 A2B2 B2C2"/>
    </vehicle>
    <vehicle id="car54" depart="108.00" color="blue">
        <route edges="B3A3 A3A2 A2B2 B2C2 C2D2 D2D3"/>
    </vehicle>
    <vehicle id="car55" depart="110.00" color="blue">
        <route edges="D1D2 D2D1 D1D0 D0C0 C0B0 B0C0"/>
    </vehicle>
    <vehicle id="car56" depart="112.00" color="blue">
        <route edges="C0B0 B0B1 B1B2 B2B3 B3A3 A3A2"/>
    </vehicle>
    <vehicle id="car57" depart="114.00" color="blue">
        <route edges="D2C2 C2D2 D2D1 D1D0"/>
    </vehicle>
    <vehicle id="car58" depart="116.00" color="blue">
        <route edges="B1B0 B0B1 B1C1 C1D1"/>
    </vehicle>
    <vehicle id="car59" depart="118.00" color="blue">
        <route edges="C1C2 C2B2 B2A2 A2B2"/>
    </vehicle>
    <vehicle id="car60" depart="120.00" color="blue">
        <route edges="C3C2 C2C1 C1C0 C0C1"/>
    </vehicle>
    <vehicle id="car61" depart="122.00" color="blue">
        <route edges="C3D3 D3D2 D2D1 D1D0 D0C0 C0C1"/>
    </vehicle>
    <vehicle id="car62" depart="124.00" color="blue">
        <route edges="A0A1 A1B1 B1B2"/>
    </vehicle>
    <vehicle id="car63" depart="126.00" color="blue">
        <route edges="A0A1 A1A2 A2B2 B2C2 C2D2 D2D1"/>
    </vehicle>
    <vehicle id="car64" depart="128.00" color="blue">
        <route edges="D1D2 D2D1 D1D0 D0C0 C0D0 D0D1"/>
    </vehicle>
    <vehicle id="car65" depart="130.00" color="blue">
        <route edges="B1B0 B0A0 A0A1 A1A0"/>
    </vehicle>
    <vehicle id="car66" depart="132.00" color="blue">
        <route edges="D1D2 D2D3"/>
    </vehicle>
    <vehicle id="car67" depart="134.00" color="blue">
        <route edges="A1B1 B1B2 B2B3 B3C3"/>
    </vehicle>
    <vehicle id="car68" depart="136.00" color="blue">
        <route edges="A1A2 A2A3 A3B3 B3C3 C3C2"/>
    </vehicle>
    <vehicle id="car69" depart="138.00" color="blue">
        <route edges="C3C2 C2B2 B2A2 A2A3"/>
    </vehicle>
    <vehicle id="car70" depart="140.00" color="blue">
        <route edges="B3B2 B2B1 B1B0 B0C0 C0D0"/>
    </vehicle>
    <vehicle id="car71" depart="142.00" color="blue">
        <route edges="B0C0 C0D0 D0D1 D1D0"/>
    </vehicle>
    <vehicle id="car72" depart="144.00" color="blue">
        <route edges="B2C2 C2C1 C1C0 C0B0 B0A0"/>
    </vehicle>
    <vehicle id="car73" depart="146.00" color="blue">
        <route edges="C0C1 C1C2 C2C3 C3B3"/>
    </vehicle>
    <vehicle id="car74" depart="148.00" color="blue">
        <route edges="A3B3 B3B2 B2B1 B1B0"/>
    </vehicle>
    <vehicle id="car75" depart="150.00" color="blue">
        <route edges="D3D2 D2C2 C2B2"/>
    </vehicle>
    <vehicle id="car76" depart="152.00" color="blue">
        <route edges="B3A3 A3A2 A2A1 A1A0 A0B0 B0C0 C0B0"/>
    </vehicle>
    <vehicle id="car77" depart="154.00" color="blue">
        <route edges="A2A1 A1A0 A0B0 B0A0"/>
    </vehicle>
    <vehicle id="car78" depart="156.00" color="blue">
        <route edges="B1C1 C1C0"/>
    </vehicle>
    <vehicle id="car79" depart="158.00" color="blue">
        <route edges="B0B1 B1B0 B0A0"/>
    </vehicle>
    <vehicle id="car80" depart="160.00" color="blue">
        <route edges="A1A2 A2B2 B2C2 C2C1 C1D1"/>
    </vehicle>
    <vehicle id="car81" depart="162.00" color="blue">
        <route edges="B0A0 A0A1 A1A2 A2B2 B2C2 C2D2 D2C2"/>
    </vehicle>
    <vehicle id="car82" depart="164.00" color="blue">
        <route edges="D1D0 D0C0 C0B0 B0A0 A0A1 A1A2"/>
    </vehicle>
    <vehicle id="car83" depart="166.00" color="blue">
        <route edges="B0B1 B1B2 B2C2 C2C1"/>
    </vehicle>
    <vehicle id="car84" depart="168.00" color="blue">
        <route edges="B0A0 A0A1 A1A2 A2A3"/>
    </vehicle>
    <vehicle id="car85" depart="170.00" color="blue">
        <route edges="D2D1 D1C1 C1B1"/>
    </vehicle>
    <vehicle id="car86" depart="172.00" color="blue">
        <route edges="B3B2 B2B3 B3C3 C3D3"/>
    </vehicle>
    <vehicle id="car87" depart="174.00" color="blue">
        <route edges="D0C0 C0B0 B0A0 A0A1 A1A2 A2A3 A3B3"/>
    </vehicle>
    <vehicle id="car88" depart="176.00" color="blue">
        <route edges="A1B1 B1B2 B2C2"/>
    </vehicle>
    <vehicle id="car89" depart="178.00" color="blue">
        <route edges="B2C2 C2B2 B2B3 B3B2"/>
    </vehicle>
    <vehicle id="car90" depart="180.00" color="blue">
        <route edges="C2D2 D2C2 C2C1"/>
    </vehicle>
    <vehicle id="car91" depart="182.00" color="blue">
        <route edges="D3D2 D2D1 D1C1 C1B1 B1A1 A1B1"/>
    </vehicle>
    <vehicle id="car92" depart="184.00" color="blue">
        <route edges="B2B3 B3B2 B2B1 B1C1"/>
    </vehicle>
    <vehicle id="car93" depart="186.00" color="blue">
        <route edges="D1D0 D0C0 C0B0 B0B1"/>
    </vehicle>
    <vehicle id="car94" depart="188.00" color="blue">
        <route edges="A3B3 B3A3"/>
    </vehicle>
    <vehicle id="car95" depart="190.00" color="blue">
        <route edges="B2C2 C2C1 C1B1 B1A1"/>
    </vehicle>
    <vehicle id="car96" depart="192.00" color="blue">
        <route edges="B0B1 B1B2 B2C2 C2D2 D2D1"/>
    </vehicle>
    <vehicle id="car97" depart="194.00" color="blue">
        <route edges="B3A3 A3A2 A2A1 A1B1 B1C1 C1D1 D1D0"/>
    </vehicle>
    <vehicle id="car98" depart="196.00" color="blue">
        <route edges="C0D0 D0D1 D1C1 C1B1 B1A1 A1A0"/>
    </vehicle>
    <vehicle id="car99" depart="198.00" color="blue">
        <route edges="D3D2 D2D1 D1C1"/>
    </vehicle>
    <vehicle id="car100" depart="200.00" color="blue">
        <route edges="D3C3 C3D3 D3D2 D2D1"/>
    </vehicle>
    <vehicle id="car101" depart="202.00" color="blue">
        <route edges="D1C1 C1B1 B1A1 A1A2 A2B2"/>
    </vehicle>
    <vehicle id="car102" depart="204.00" color="blue">
        <route edges="B3C3 C3C2 C2C1 C1C0 C0B0 B0A0"/>
    </vehicle>
    <vehicle id="car103" depart="206.00" color="blue">
        <route edges="B2B3 B3A3 A3A2 A2A1 A1A0"/>
    </vehicle>
    <vehicle id="car104" depart="208.00" color="blue">
        <route edges="B2B1 B1B2 B2B3 B3C3 C3D3 D3D2"/>
    </vehicle>
    <vehicle id="car105" depart="210.00" color="blue">
        <route edges="B0C0 C0C1 C1C2 C2C3 C3D3"/>
    </vehicle>
    <vehicle id="car106" depart="212.00" color="blue">
        <route edges="B3A3 A3A2 A2B2 B2C2"/>
    </vehicle>
    <vehicle id="car107" depart="214.00" color="blue">
        <route edges="D2D3 D3C3 C3D3 D3D2"/>
    </vehicle>
    <vehicle id="car108" depart="216.00" color="blue">
        <route edges="C0D0 D0D1 D1C1 C1C2 C2D2"/>
    </vehicle>
    <vehicle id="car109" depart="218.00" color="blue">
        <route edges="A2B2 B2B1 B1B0"/>
    </vehicle>
    <vehicle id="car110" depart="220.00" color="blue">
        <route edges="D3C3 C3C2 C2C1 C1B1"/>
    </vehicle>
    <vehicle id="car111" depart="222.00" color="blue">
        <route edges="C0D0 D0D1 D1D2 D2D3 D3C3 C3B3"/>
    </vehicle>
    <vehicle id="car112" depart="224.00" color="blue">
        <route edges="A1A0 A0B0 B0B1 B1C1 C1C0"/>
    </vehicle>
    <vehicle id="car113" depart="226.00" color="blue">
        <route edges="C0B0 B0B1 B1C1 C1D1 D1C1"/>
    </vehicle>
    <vehicle id="car114" depart="228.00" color="blue">
        <route edges="A2B2 B2C2 C2D2 D2D3 D3C3"/>
    </vehicle>
    <vehicle id="car115" depart="230.00" color="blue">
        <route edges="A1A2 A2A3 A3B3 B3A3 A3A2"/>
    </vehicle>
    <vehicle id="car116" depart="232.00" color="blue">
        <route edges="C1C0 C0C1 C1C2 C2C1"/>
    </vehicle>
    <vehicle id="car117" depart="234.00" color="blue">
        <route edges="B0B1 B1B2 B2A2 A2A1"/>
    </vehicle>
    <vehicle id="car118" depart="236.00" color="blue">
        <route edges="D1D2 D2D1 D1D0 D0C0 C0B0 B0B1"/>
    </vehicle>
    <vehicle id="car119" depart="238.00" color="blue">
        <route edges="C1C0 C0C1 C1C2"/>
    </vehicle>
    <vehicle id="car120" depart="240.00" color="blue">
        <route edges="B2C2 C2C1 C1C0"/>
    </vehicle>
    <vehicle id="car121" depart="242.00" color="blue">
        <route edges="C0C1 C1C2 C2D2 D2D1"/>
    </vehicle>
    <vehicle id="car122" depart="244.00" color="blue">
        <route edges="A3B3 B3C3 C3C2 C2D2"/>
    </vehicle>
    <vehicle id="car123" depart="246.00" color="blue">
        <route edges="B0B1 B1B2 B2B1"/>
    </vehicle>
    <vehicle id="car124" depart="248.00" color="blue">
        <route edges="C2C1 C1B1 B1B0"/>
    </vehicle>
    <vehicle id="car125" depart="250.00" color="blue">
        <route edges="B1B2 B2B3 B3C3 C3C2"/>
    </vehicle>
    <vehicle id="car126" depart="252.00" color="blue">
        <route edges="A1A2 A2A3 A3B3 B3A3"/>
    </vehicle>
    <vehicle id="car127" depart="254.00" color="blue">
        <route edges="D3D2"/>
    </vehicle>
    <vehicle id="car128" depart="256.00" color="blue">
        <route edges="A1A2 A2B2 B2B1 B1B0 B0A0"/>
    </vehicle>
    <vehicle id="car129" depart="258.00" color="blue">
        <route edges="B0C0 C0D0 D0D1 D1D2 D2D1"/>
    </vehicle>
    <vehicle id="car130" depart="260.00" color="blue">
        <route edges="D1D2"/>
    </vehicle>
    <vehicle id="car131" depart="262.00" color="blue">
        <route edges="B2A2 A2B2"/>
    </vehicle>
    <vehicle id="car132" depart="264.00" color="blue">
        <route edges="D1C1 C1C2 C2C3"/>
    </vehicle>
    <vehicle id="car133" depart="266.00" color="blue">
        <route edges="C1C2 C2C3 C3D3 D3D2"/>
    </vehicle>
    <vehicle id="car134" depart="268.00" color="blue">
        <route edges="C2B2 B2B1 B1B0 B0A0 A0A1"/>
    </vehicle>
    <vehicle id="car135" depart="270.00" color="blue">
        <route edges="D0D1 D1C1 C1B1 B1B0"/>
    </vehicle>
    <vehicle id="car136" depart="272.00" color="blue">
        <route edges="C2B2 B2C2 C2D2 D2D3"/>
    </vehicle>
    <vehicle id="car137" depart="274.00" color="blue">
        <route edges="A2A3 A3B3 B3B2 B2A2 A2A1"/>
    </vehicle>
    <vehicle id="car138" depart="276.00" color="blue">
        <route edges="A2A1 A1A0 A0B0 B0C0 C0D0"/>
    </vehicle>
    <vehicle id="car139" depart="278.00" color="blue">
        <route edges="B1A1 A1B1 B1C1 C1C2"/>
    </vehicle>
    <vehicle id="car140" depart="280.00" color="blue">
        <route edges="C2D2 D2C2 C2B2 B2A2 A2A3 A3B3"/>
    </vehicle>
    <vehicle id="car141" depart="282.00" color="blue">
        <route edges="C1D1 D1D0 D0C0 C0B0 B0C0"/>
    </vehicle>
    <vehicle id="car142" depart="284.00" color="blue">
        <route edges="B3C3 C3D3 D3D2 D2C2"/>
    </vehicle>
    <vehicle id="car143" depart="286.00" color="blue">
        <route edges="D1C1 C1B1 B1A1 A1B1"/>
    </vehicle>
    <vehicle id="car144" depart="288.00" color="blue">
        <route edges="B2C2 C2C1 C1B1 B1A1"/>
    </vehicle>
    <vehicle id="car145" depart="290.00" color="blue">
        <route edges="A0A1 A1A2 A2A3 A3B3 B3C3 C3D3"/>
    </vehicle>
    <vehicle id="car146" depart="292.00" color="blue">
        <route edges="C1D1 D1D0 D0C0 C0B0 B0C0"/>
    </vehicle>
    <vehicle id="car147" depart="294.00" color="blue">
        <route edges="C3B3 B3C3 C3C2 C2C1 C1C0 C0D0"/>
    </vehicle>
    <vehicle id="car148" depart="296.00" color="blue">
        <route edges="B2C2 C2C1 C1C0 C0B0 B0A0 A0A1"/>
    </vehicle>
    <vehicle id="car149" depart="298.00" color="blue">
        <route edges="A1A2 A2B2 B2C2 C2D2 D2D1 D1D2"/>
    </vehicle>
    <vehicle id="car150" depart="300.00" color="blue">
        <route edges="D2C2 C2C1 C1C0 C0D0"/>
    </vehicle>
    <vehicle id="car151" depart="302.00" color="blue">
        <route edges="D1C1 C1B1"/>
    </vehicle>
    <vehicle id="car152" depart="304.00" color="blue">
        <route edges="A2B2 B2A2 A2A3"/>
    </vehicle>
    <vehicle id="car153" depart="306.00" color="blue">
        <route edges="B1B0 B0C0 C0D0 D0D1 D1D2 D2C2"/>
    </vehicle>
    <vehicle id="car154" depart="308.00" color="blue">
        <route edges="D0C0 C0C1 C1D1 D1D0"/>
    </vehicle>
    <vehicle id="car155" depart="310.00" color="blue">
        <route edges="D2C2 C2B2 B2B1 B1B0 B0A0"/>
    </vehicle>
    <vehicle id="car156" depart="312.00" color="blue">
        <route edges="B0B1 B1A1 A1B1"/>
    </vehicle>
    <vehicle id="car157" depart="314.00" color="blue">
        <route edges="C3D3 D3D2 D2D1 D1D2"/>
    </vehicle>
    <vehicle id="car158" depart="316.00" color="blue">
        <route edges="B2B3 B3C3 C3C2 C2C1 C1C2"/>
    </vehicle>
    <vehicle id="car159" depart="318.00" color="blue">
        <route edges="A2B2 B2C2 C2D2 D2D1"/>
    </vehicle>
    <vehicle id="car160" depart="320.00" color="blue">
        <route edges="D1D0 D0C0 C0C1 C1C2 C2D2 D2D3 D3C3"/>
    </vehicle>
    <vehicle id="car161" depart="322.00" color="blue">
        <route edges="D0C0 C0C1 C1D1 D1D2"/>
    </vehicle>
    <vehicle id="car162" depart="324.00" color="blue">
        <route edges="A0B0 B0C0 C0C1 C1C2 C2C3 C3B3"/>
    </vehicle>
    <vehicle id="car163" depart="326.00" color="blue">
        <route edges="B1B2 B2C2 C2D2 D2D1"/>
    </vehicle>
    <vehicle id="car164" depart="328.00" color="blue">
        <route edges="D0C0 C0C1 C1D1 D1D0"/>
    </vehicle>
    <vehicle id="car165" depart="330.00" color="blue">
        <route edges="D0C0 C0B0 B0C0"/>
    </vehicle>
    <vehicle id="car166" depart="332.00" color="blue">
        <route edges="C3D3 D3D2 D2C2 C2B2 B2A2 A2A1"/>
    </vehicle>
    <vehicle id="car167" depart="334.00" color="blue">
        <route edges="D1D0"/>
    </vehicle>
    <vehicle id="car168" depart="336.00" color="blue">
        <route edges="B0A0 A0A1 A1B1 B1C1 C1C0 C0D0 D0D1"/>
    </vehicle>
    <vehicle id="car169" depart="338.00" color="blue">
        <route edges="B3B2 B2B1 B1B0"/>
    </vehicle>
    <vehicle id="car170" depart="340.00" color="blue">
        <route edges="D0C0 C0B0 B0A0"/>
    </vehicle>
    <vehicle id="car171" depart="342.00" color="blue">
        <route edges="A0B0 B0A0 A0A1 A1A2 A2A3 A3B3"/>
    </vehicle>
    <vehicle id="car172" depart="344.00" color="blue">
        <route edges="B1B2 B2C2 C2D2 D2D1 D1D0"/>
    </vehicle>
    <vehicle id="car173" depart="346.00" color="blue">
        <route edges="D3C3 C3B3 B3B2 B2B1 B1A1"/>
    </vehicle>
    <vehicle id="car174" depart="348.00" color="blue">
        <route edges="C1D1 D1C1 C1B1 B1B2 B2B3"/>
    </vehicle>
    <vehicle id="car175" depart="350.00" color="blue">
        <route edges="D3D2 D2D1 D1D0 D0C0 C0C1"/>
    </vehicle>
    <vehicle id="car176" depart="352.00" color="blue">
        <route edges="D2D3 D3C3 C3B3 B3A3 A3A2 A2A1"/>
    </vehicle>
    <vehicle id="car177" depart="354.00" color="blue">
        <route edges="D3C3 C3B3 B3A3 A3A2"/>
    </vehicle>
    <vehicle id="car178" depart="356.00" color="blue">
        <route edges="D3C3 C3B3 B3B2 B2B1 B1B0 B0C0"/>
    </vehicle>
    <vehicle id="car179" depart="358.00" color="blue">
        <route edges="A2A1 A1A2 A2B2 B2C2"/>
    </vehicle>
    <vehicle id="car180" depart="360.00" color="blue">
        <route edges="C2D2 D2D1 D1C1 C1B1 B1B2"/>
    </vehicle>
    <vehicle id="car181" depart="362.00" color="blue">
        <route edges="C1C2 C2C1 C1C0 C0B0"/>
    </vehicle>
    <vehicle id="car182" depart="364.00" color="blue">
        <route edges="B2B1 B1C1 C1B1"/>
    </vehicle>
    <vehicle id="car183" depart="366.00" color="blue">
        <route edges="B0C0 C0C1 C1C2 C2D2"/>
    </vehicle>
    <vehicle id="car184" depart="368.00" color="blue">
        <route edges="A0A1 A1A2 A2B2 B2C2 C2D2 D2D1"/>
    </vehicle>
    <vehicle id="car185" depart="370.00" color="blue">
        <route edges="C0C1 C1C2 C2D2"/>
    </vehicle>
    <vehicle id="car186" depart="372.00" color="blue">
        <route edges="C3B3 B3C3 C3C2 C2C1"/>
    </vehicle>
    <vehicle id="car187" depart="374.00" color="blue">
        <route edges="B2A2 A2A1 A1A2"/>
    </vehicle>
    <vehicle id="car188" depart="376.00" color="blue">
        <route edges="C2B2 B2B1 B1B2"/>
    </vehicle>
    <vehicle id="car189" depart="378.00" color="blue">
        <route edges="B1B2 B2C2 C2D2 D2D1 D1C1"/>
    </vehicle>
    <vehicle id="car190" depart="380.00" color="blue">
        <route edges="C2D2 D2D1 D1C1 C1B1 B1B0"/>
    </vehicle>
    <vehicle id="car191" depart="382.00" color="blue">
        <route edges="B1B0 B0B1 B1B2 B2B3"/>
    </vehicle>
    <vehicle id="car192" depart="384.00" color="blue">
        <route edges="B2B3 B3B2 B2B1 B1B0"/>
    </vehicle>
    <vehicle id="car193" depart="386.00" color="blue">
        <route edges="A2A3 A3B3 B3B2 B2C2"/>
    </vehicle>
    <vehicle id="car194" depart="388.00" color="blue">
        <route edges="D2D3 D3C3 C3C2 C2C1"/>
    </vehicle>
    <vehicle id="car195" depart="390.00" color="blue">
        <route edges="D2C2 C2C1 C1C2"/>
    </vehicle>
    <vehicle id="car196" depart="392.00" color="blue">
        <route edges="B1B0 B0C0 C0D0"/>
    </vehicle>
    <vehicle id="car197" depart="394.00" color="blue">
        <route edges="A0A1 A1B1 B1A1"/>
    </vehicle>
    <vehicle id="car198" depart="396.00" color="blue">
        <route edges="B2C2 C2C1 C1B1"/>
    </vehicle>
    <vehicle id="car199" depart="398.00" color="blue">
        <route edges="C2B2 B2B3 B3B2"/>
    </vehicle>
    <vehicle id="car200" depart="400.00" color="blue">
        <route edges="B3A3 A3A2 A2A1 A1A0 A0B0 B0A0"/>
    </vehicle>
    <vehicle id="car201" depart="402.00" color="blue">
        <route edges="B3B2 B2C2 C2D2 D2C2"/>
    </vehicle>
    <vehicle id="car202" depart="404.00" color="blue">
        <route edges="D0C0 C0B0 B0B1 B1B2 B2B3 B3A3 A3A2"/>
    </vehicle>
    <vehicle id="car203" depart="406.00" color="blue">
        <route edges="A1B1 B1C1 C1C0 C0B0"/>
    </vehicle>
    <vehicle id="car204" depart="408.00" color="blue">
        <route edges="C1D1 D1C1 C1B1 B1C1"/>
    </vehicle>
    <vehicle id="car205" depart="410.00" color="blue">
        <route edges="D0D1 D1D2 D2D3 D3C3 C3C2"/>
    </vehicle>
    <vehicle id="car206" depart="412.00" color="blue">
        <route edges="C2C1 C1C0 C0B0 B0A0"/>
    </vehicle>
    <vehicle id="car207" depart="414.00" color="blue">
        <route edges="A3B3 B3B2 B2B1 B1A1 A1A0 A0B0"/>
    </vehicle>
    <vehicle id="car208" depart="416.00" color="blue">
        <route edges="B0B1 B1B2 B2B3 B3B2"/>
    </vehicle>
    <vehicle id="car209" depart="418.00" color="blue">
        <route edges="D1C1 C1B1 B1A1 A1A2"/>
    </vehicle>
    <vehicle id="car210" depart="420.00" color="blue">
        <route edges="B2B3 B3C3 C3C2 C2C1 C1D1"/>
    </vehicle>
    <vehicle id="car211" depart="422.00" color="blue">
        <route edges="A3B3 B3C3 C3C2 C2C3"/>
    </vehicle>
    <vehicle id="car212" depart="424.00" color="blue">
        <route edges="B3C3 C3C2 C2C1 C1C0 C0B0 B0B1"/>
    </vehicle>
    <vehicle id="car213" depart="426.00" color="blue">
        <route edges="C2B2 B2B1 B1B0 B0A0 A0A1"/>
    </vehicle>
    <vehicle id="car214" depart="428.00" color="blue">
        <route edges="C3C2"/>
    </vehicle>
    <vehicle id="car215" depart="430.00" color="blue">
        <route edges="A2A1 A1A2 A2B2 B2C2"/>
    </vehicle>
    <vehicle id="car216" depart="432.00" color="blue">
        <route edges="A3A2 A2B2 B2C2 C2D2 D2D3"/>
    </vehicle>
    <vehicle id="car217" depart="434.00" color="blue">
        <route edges="C0B0 B0A0 A0A1 A1A0"/>
    </vehicle>
    <vehicle id="car218" depart="436.00" color="blue">
        <route edges="B0B1 B1C1 C1D1 D1C1"/>
    </vehicle>
    <vehicle id="car219" depart="438.00" color="blue">
        <route edges="B3A3 A3A2 A2A1 A1B1 B1C1 C1D1 D1D0 D0C0"/>
    </vehicle>
    <vehicle id="car220" depart="440.00" color="blue">
        <route edges="C2C1 C1C2 C2C3 C3D3 D3D2"/>
    </vehicle>
    <vehicle id="car221" depart="442.00" color="blue">
        <route edges="C1C0 C0D0 D0D1 D1D2 D2D3"/>
    </vehicle>
    <vehicle id="car222" depart="444.00" color="blue">
        <route edges="D1D2 D2D1 D1C1 C1C2"/>
    </vehicle>
    <vehicle id="car223" depart="446.00" color="blue">
        <route edges="C2D2 D2D1 D1D0 D0C0 C0B0"/>
    </vehicle>
    <vehicle id="car224" depart="448.00" color="blue">
        <route edges="D0D1 D1D0 D0C0 C0D0"/>
    </vehicle>
    <vehicle id="car225" depart="450.00" color="blue">
        <route edges="D2C2 C2C3 C3B3"/>
    </vehicle>
    <vehicle id="car226" depart="452.00" color="blue">
        <route edges="B3B2 B2B1 B1B0 B0C0"/>
    </vehicle>
    <vehicle id="car227" depart="454.00" color="blue">
        <route edges="B0B1 B1C1 C1D1"/>
    </vehicle>
    <vehicle id="car228" depart="456.00" color="blue">
        <route edges="C3C2 C2C1 C1C0 C0C1"/>
    </vehicle>
    <vehicle id="car229" depart="458.00" color="blue">
        <route edges="C1D1 D1C1 C1B1 B1A1"/>
    </vehicle>
    <vehicle id="car230" depart="460.00" color="blue">
        <route edges="A1A2 A2B2 B2B1 B1A1"/>
    </vehicle>
    <vehicle id="car231" depart="462.00" color="blue">
        <route edges="B1A1 A1B1 B1B2"/>
    </vehicle>
    <vehicle id="car232" depart="464.00" color="blue">
        <route edges="C0C1 C1C2 C2B2 B2A2 A2A3"/>
    </vehicle>
    <vehicle id="car233" depart="466.00" color="blue">
        <route edges="B0B1 B1B2 B2C2 C2C3"/>
    </vehicle>
    <vehicle id="car234" depart="468.00" color="blue">
        <route edges="C2C3 C3C2 C2C1 C1B1 B1A1 A1A2"/>
    </vehicle>
    <vehicle id="car235" depart="470.00" color="blue">
        <route edges="B2B3 B3C3 C3C2 C2C1 C1C0 C0D0"/>
    </vehicle>
    <vehicle id="car236" depart="472.00" color="blue">
        <route edges="B2B3 B3B2 B2A2 A2A3 A3B3"/>
    </vehicle>
    <vehicle id="car237" depart="474.00" color="blue">
        <route edges="B2C2 C2D2 D2C2"/>
    </vehicle>
    <vehicle id="car238" depart="476.00" color="blue">
        <route edges="C1C0 C0C1 C1C2 C2C3"/>
    </vehicle>
    <vehicle id="car239" depart="478.00" color="blue">
        <route edges="D1D0 D0C0 C0C1 C1C2 C2C3 C3C2"/>
    </vehicle>
    <vehicle id="car240" depart="480.00" color="blue">
        <route edges="B2B1 B1B0 B0A0 A0A1"/>
    </vehicle>
    <vehicle id="car241" depart="482.00" color="blue">
        <route edges="B1C1 C1C2 C2C3 C3C2"/>
    </vehicle>
    <vehicle id="car242" depart="484.00" color="blue">
        <route edges="D1C1 C1C2 C2D2 D2D3"/>
    </vehicle>
    <vehicle id="car243" depart="486.00" color="blue">
        <route edges="B2C2 C2C3 C3B3"/>
    </vehicle>
    <vehicle id="car244" depart="488.00" color="blue">
        <route edges="C0D0 D0D1 D1C1 C1C0"/>
    </vehicle>
    <vehicle id="car245" depart="490.00" color="blue">
        <route edges="B0A0"/>
    </vehicle>
    <vehicle id="car246" depart="492.00" color="blue">
        <route edges="B2C2 C2C1 C1B1 B1A1 A1A0 A0B0"/>
    </vehicle>
    <vehicle id="car247" depart="494.00" color="blue">