<?xml version="1.0" encoding="UTF-8"?>

<!-- generated on 2024-02-25 21:04:59 by Eclipse SUMO netgenerate Version 1.19.0
<configuration xmlns:xsi="http://www.w3.org/2001/XMLSchema-instance" xsi:noNamespaceSchemaLocation="http://sumo.dlr.de/xsd/netgenerateConfiguration.xsd">

    <grid_network>
        <grid value="true"/>
        <grid.number value="15"/>
        <grid.length value="400"/>
    </grid_network>

    <output>
        <output-file value="cenary.net.xml"/>
    </output>

    <building_defaults>
        <default-junction-type value="traffic_light"/>
    </building_defaults>

</configuration>
-->

<net version="1.16" junctionCornerDetail="5" limitTurnSpeed="5.50" xmlns:xsi="http://www.w3.org/2001/XMLSchema-instance" xsi:noNamespaceSchemaLocation="http://sumo.dlr.de/xsd/net_file.xsd">

    <location netOffset="0.00,0.00" convBoundary="0.00,0.00,5600.00,5600.00" origBoundary="0.00,0.00,5600.00,5600.00" projParameter="!"/>

    <edge id=":A0_0" function="internal">
        <lane id=":A0_0_0" index="0" speed="6.08" length="7.74" shape="-1.60,3.20 -1.30,1.10 -0.40,-0.40 1.10,-1.30 3.20,-1.60"/>
    </edge>
    <edge id=":A0_1" function="internal">
        <lane id=":A0_1_0" index="0" speed="3.90" length="2.58" shape="3.20,1.60 2.50,1.70 2.00,2.00 1.70,2.50 1.60,3.20"/>
    </edge>
    <edge id=":A1_0" function="internal">
        <lane id=":A1_0_0" index="0" speed="13.89" length="14.40" shape="-1.60,407.20 -1.60,392.80"/>
    </edge>
    <edge id=":A1_1" function="internal">
        <lane id=":A1_1_0" index="0" speed="8.00" length="4.07" shape="-1.60,407.20 -1.05,403.35 -0.96,403.20"/>
    </edge>
    <edge id=":A1_2" function="internal">
        <lane id=":A1_2_0" index="0" speed="3.65" length="1.44" shape="-1.60,407.20 -0.80,406.00"/>
    </edge>
    <edge id=":A1_9" function="internal">
        <lane id=":A1_9_0" index="0" speed="8.00" length="10.13" shape="-0.96,403.20 0.60,400.60 3.35,398.95 7.20,398.40"/>
    </edge>
    <edge id=":A1_10" function="internal">
        <lane id=":A1_10_0" index="0" speed="3.65" length="3.23" shape="-0.80,406.00 0.00,405.60 0.80,406.00 1.60,407.20"/>
    </edge>
    <edge id=":A1_3" function="internal">
        <lane id=":A1_3_0" index="0" speed="6.51" length="9.03" shape="7.20,401.60 4.75,401.95 3.00,403.00 1.95,404.75 1.60,407.20"/>
    </edge>
    <edge id=":A1_4" function="internal">
        <lane id=":A1_4_0" index="0" speed="8.00" length="14.19" shape="7.20,401.60 3.35,401.05 0.60,399.40 -1.05,396.65 -1.60,392.80"/>
    </edge>
    <edge id=":A1_5" function="internal">
        <lane id=":A1_5_0" index="0" speed="3.65" length="1.44" shape="7.20,401.60 6.00,400.80"/>
    </edge>
    <edge id=":A1_11" function="internal">
        <lane id=":A1_11_0" index="0" speed="3.65" length="3.23" shape="6.00,400.80 5.60,400.00 6.00,399.20 7.20,398.40"/>
    </edge>
    <edge id=":A1_6" function="internal">
        <lane id=":A1_6_0" index="0" speed="6.51" length="9.03" shape="1.60,392.80 1.95,395.25 3.00,397.00 4.75,398.05 7.20,398.40"/>
    </edge>
    <edge id=":A1_7" function="internal">
        <lane id=":A1_7_0" index="0" speed="13.89" length="14.40" shape="1.60,392.80 1.60,407.20"/>
    </edge>
    <edge id=":A1_8" function="internal">
        <lane id=":A1_8_0" index="0" speed="3.65" length="1.44" shape="1.60,392.80 0.80,394.00"/>
    </edge>
    <edge id=":A1_12" function="internal">
        <lane id=":A1_12_0" index="0" speed="3.65" length="3.23" shape="0.80,394.00 0.00,394.40 -0.80,394.00 -1.60,392.80"/>
    </edge>
    <edge id=":A10_0" function="internal">
        <lane id=":A10_0_0" index="0" speed="13.89" length="14.40" shape="-1.60,4007.20 -1.60,3992.80"/>
    </edge>
    <edge id=":A10_1" function="internal">
        <lane id=":A10_1_0" index="0" speed="8.00" length="4.07" shape="-1.60,4007.20 -1.05,4003.35 -0.96,4003.20"/>
    </edge>
    <edge id=":A10_2" function="internal">
        <lane id=":A10_2_0" index="0" speed="3.65" length="1.44" shape="-1.60,4007.20 -0.80,4006.00"/>
    </edge>
    <edge id=":A10_9" function="internal">
        <lane id=":A10_9_0" index="0" speed="8.00" length="10.13" shape="-0.96,4003.20 0.60,4000.60 3.35,3998.95 7.20,3998.40"/>
    </edge>
    <edge id=":A10_10" function="internal">
        <lane id=":A10_10_0" index="0" speed="3.65" length="3.23" shape="-0.80,4006.00 0.00,4005.60 0.80,4006.00 1.60,4007.20"/>
    </edge>
    <edge id=":A10_3" function="internal">
        <lane id=":A10_3_0" index="0" speed="6.51" length="9.03" shape="7.20,4001.60 4.75,4001.95 3.00,4003.00 1.95,4004.75 1.60,4007.20"/>
    </edge>
    <edge id=":A10_4" function="internal">
        <lane id=":A10_4_0" index="0" speed="8.00" length="14.19" shape="7.20,4001.60 3.35,4001.05 0.60,3999.40 -1.05,3996.65 -1.60,3992.80"/>
    </edge>
    <edge id=":A10_5" function="internal">
        <lane id=":A10_5_0" index="0" speed="3.65" length="1.44" shape="7.20,4001.60 6.00,4000.80"/>
    </edge>
    <edge id=":A10_11" function="internal">
        <lane id=":A10_11_0" index="0" speed="3.65" length="3.23" shape="6.00,4000.80 5.60,4000.00 6.00,3999.20 7.20,3998.40"/>
    </edge>
    <edge id=":A10_6" function="internal">
        <lane id=":A10_6_0" index="0" speed="6.51" length="9.03" shape="1.60,3992.80 1.95,3995.25 3.00,3997.00 4.75,3998.05 7.20,3998.40"/>
    </edge>
    <edge id=":A10_7" function="internal">
        <lane id=":A10_7_0" index="0" speed="13.89" length="14.40" shape="1.60,3992.80 1.60,4007.20"/>
    </edge>
    <edge id=":A10_8" function="internal">
        <lane id=":A10_8_0" index="0" speed="3.65" length="1.44" shape="1.60,3992.80 0.80,3994.00"/>
    </edge>
    <edge id=":A10_12" function="internal">
        <lane id=":A10_12_0" index="0" speed="3.65" length="3.23" shape="0.80,3994.00 0.00,3994.40 -0.80,3994.00 -1.60,3992.80"/>
    </edge>
    <edge id=":A11_0" function="internal">
        <lane id=":A11_0_0" index="0" speed="13.89" length="14.40" shape="-1.60,4407.20 -1.60,4392.80"/>
    </edge>
    <edge id=":A11_1" function="internal">
        <lane id=":A11_1_0" index="0" speed="8.00" length="4.07" shape="-1.60,4407.20 -1.05,4403.35 -0.96,4403.20"/>
    </edge>
    <edge id=":A11_2" function="internal">
        <lane id=":A11_2_0" index="0" speed="3.65" length="1.44" shape="-1.60,4407.20 -0.80,4406.00"/>
    </edge>
    <edge id=":A11_9" function="internal">
        <lane id=":A11_9_0" index="0" speed="8.00" length="10.13" shape="-0.96,4403.20 0.60,4400.60 3.35,4398.95 7.20,4398.40"/>
    </edge>
    <edge id=":A11_10" function="internal">
        <lane id=":A11_10_0" index="0" speed="3.65" length="3.23" shape="-0.80,4406.00 0.00,4405.60 0.80,4406.00 1.60,4407.20"/>
    </edge>
    <edge id=":A11_3" function="internal">
        <lane id=":A11_3_0" index="0" speed="6.51" length="9.03" shape="7.20,4401.60 4.75,4401.95 3.00,4403.00 1.95,4404.75 1.60,4407.20"/>
    </edge>
    <edge id=":A11_4" function="internal">
        <lane id=":A11_4_0" index="0" speed="8.00" length="14.19" shape="7.20,4401.60 3.35,4401.05 0.60,4399.40 -1.05,4396.65 -1.60,4392.80"/>
    </edge>
    <edge id=":A11_5" function="internal">
        <lane id=":A11_5_0" index="0" speed="3.65" length="1.44" shape="7.20,4401.60 6.00,4400.80"/>
    </edge>
    <edge id=":A11_11" function="internal">
        <lane id=":A11_11_0" index="0" speed="3.65" length="3.23" shape="6.00,4400.80 5.60,4400.00 6.00,4399.20 7.20,4398.40"/>
    </edge>
    <edge id=":A11_6" function="internal">
        <lane id=":A11_6_0" index="0" speed="6.51" length="9.03" shape="1.60,4392.80 1.95,4395.25 3.00,4397.00 4.75,4398.05 7.20,4398.40"/>
    </edge>
    <edge id=":A11_7" function="internal">
        <lane id=":A11_7_0" index="0" speed="13.89" length="14.40" shape="1.60,4392.80 1.60,4407.20"/>
    </edge>
    <edge id=":A11_8" function="internal">
        <lane id=":A11_8_0" index="0" speed="3.65" length="1.44" shape="1.60,4392.80 0.80,4394.00"/>
    </edge>
    <edge id=":A11_12" function="internal">
        <lane id=":A11_12_0" index="0" speed="3.65" length="3.23" shape="0.80,4394.00 0.00,4394.40 -0.80,4394.00 -1.60,4392.80"/>
    </edge>
    <edge id=":A12_0" function="internal">
        <lane id=":A12_0_0" index="0" speed="13.89" length="14.40" shape="-1.60,4807.20 -1.60,4792.80"/>
    </edge>
    <edge id=":A12_1" function="internal">
        <lane id=":A12_1_0" index="0" speed="8.00" length="4.07" shape="-1.60,4807.20 -1.05,4803.35 -0.96,4803.20"/>
    </edge>
    <edge id=":A12_2" function="internal">
        <lane id=":A12_2_0" index="0" speed="3.65" length="1.44" shape="-1.60,4807.20 -0.80,4806.00"/>
    </edge>
    <edge id=":A12_9" function="internal">
        <lane id=":A12_9_0" index="0" speed="8.00" length="10.13" shape="-0.96,4803.20 0.60,4800.60 3.35,4798.95 7.20,4798.40"/>
    </edge>
    <edge id=":A12_10" function="internal">
        <lane id=":A12_10_0" index="0" speed="3.65" length="3.23" shape="-0.80,4806.00 0.00,4805.60 0.80,4806.00 1.60,4807.20"/>
    </edge>
    <edge id=":A12_3" function="internal">
        <lane id=":A12_3_0" index="0" speed="6.51" length="9.03" shape="7.20,4801.60 4.75,4801.95 3.00,4803.00 1.95,4804.75 1.60,4807.20"/>
    </edge>
    <edge id=":A12_4" function="internal">
        <lane id=":A12_4_0" index="0" speed="8.00" length="14.19" shape="7.20,4801.60 3.35,4801.05 0.60,4799.40 -1.05,4796.65 -1.60,4792.80"/>
    </edge>
    <edge id=":A12_5" function="internal">
        <lane id=":A12_5_0" index="0" speed="3.65" length="1.44" shape="7.20,4801.60 6.00,4800.80"/>
    </edge>
    <edge id=":A12_11" function="internal">
        <lane id=":A12_11_0" index="0" speed="3.65" length="3.23" shape="6.00,4800.80 5.60,4800.00 6.00,4799.20 7.20,4798.40"/>
    </edge>
    <edge id=":A12_6" function="internal">
        <lane id=":A12_6_0" index="0" speed="6.51" length="9.03" shape="1.60,4792.80 1.95,4795.25 3.00,4797.00 4.75,4798.05 7.20,4798.40"/>
    </edge>
    <edge id=":A12_7" function="internal">
        <lane id=":A12_7_0" index="0" speed="13.89" length="14.40" shape="1.60,4792.80 1.60,4807.20"/>
    </edge>
    <edge id=":A12_8" function="internal">
        <lane id=":A12_8_0" index="0" speed="3.65" length="1.44" shape="1.60,4792.80 0.80,4794.00"/>
    </edge>
    <edge id=":A12_12" function="internal">
        <lane id=":A12_12_0" index="0" speed="3.65" length="3.23" shape="0.80,4794.00 0.00,4794.40 -0.80,4794.00 -1.60,4792.80"/>
    </edge>
    <edge id=":A13_0" function="internal">
        <lane id=":A13_0_0" index="0" speed="13.89" length="14.40" shape="-1.60,5207.20 -1.60,5192.80"/>
    </edge>
    <edge id=":A13_1" function="internal">
        <lane id=":A13_1_0" index="0" speed="8.00" length="4.07" shape="-1.60,5207.20 -1.05,5203.35 -0.96,5203.20"/>
    </edge>
    <edge id=":A13_2" function="internal">
        <lane id=":A13_2_0" index="0" speed="3.65" length="1.44" shape="-1.60,5207.20 -0.80,5206.00"/>
    </edge>
    <edge id=":A13_9" function="internal">
        <lane id=":A13_9_0" index="0" speed="8.00" length="10.13" shape="-0.96,5203.20 0.60,5200.60 3.35,5198.95 7.20,5198.40"/>
    </edge>
    <edge id=":A13_10" function="internal">
        <lane id=":A13_10_0" index="0" speed="3.65" length="3.23" shape="-0.80,5206.00 0.00,5205.60 0.80,5206.00 1.60,5207.20"/>
    </edge>
    <edge id=":A13_3" function="internal">
        <lane id=":A13_3_0" index="0" speed="6.51" length="9.03" shape="7.20,5201.60 4.75,5201.95 3.00,5203.00 1.95,5204.75 1.60,5207.20"/>
    </edge>
    <edge id=":A13_4" function="internal">
        <lane id=":A13_4_0" index="0" speed="8.00" length="14.19" shape="7.20,5201.60 3.35,5201.05 0.60,5199.40 -1.05,5196.65 -1.60,5192.80"/>
    </edge>
    <edge id=":A13_5" function="internal">
        <lane id=":A13_5_0" index="0" speed="3.65" length="1.44" shape="7.20,5201.60 6.00,5200.80"/>
    </edge>
    <edge id=":A13_11" function="internal">
        <lane id=":A13_11_0" index="0" speed="3.65" length="3.23" shape="6.00,5200.80 5.60,5200.00 6.00,5199.20 7.20,5198.40"/>
    </edge>
    <edge id=":A13_6" function="internal">
        <lane id=":A13_6_0" index="0" speed="6.51" length="9.03" shape="1.60,5192.80 1.95,5195.25 3.00,5197.00 4.75,5198.05 7.20,5198.40"/>
    </edge>
    <edge id=":A13_7" function="internal">
        <lane id=":A13_7_0" index="0" speed="13.89" length="14.40" shape="1.60,5192.80 1.60,5207.20"/>
    </edge>
    <edge id=":A13_8" function="internal">
        <lane id=":A13_8_0" index="0" speed="3.65" length="1.44" shape="1.60,5192.80 0.80,5194.00"/>
    </edge>
    <edge id=":A13_12" function="internal">
        <lane id=":A13_12_0" index="0" speed="3.65" length="3.23" shape="0.80,5194.00 0.00,5194.40 -0.80,5194.00 -1.60,5192.80"/>
    </edge>
    <edge id=":A14_0" function="internal">
        <lane id=":A14_0_0" index="0" speed="6.08" length="7.74" shape="3.20,5601.60 1.10,5601.30 -0.40,5600.40 -1.30,5598.90 -1.60,5596.80"/>
    </edge>
    <edge id=":A14_1" function="internal">
        <lane id=":A14_1_0" index="0" speed="3.90" length="2.58" shape="1.60,5596.80 1.70,5597.50 2.00,5598.00 2.50,5598.30 3.20,5598.40"/>
    </edge>
    <edge id=":A2_0" function="internal">
        <lane id=":A2_0_0" index="0" speed="13.89" length="14.40" shape="-1.60,807.20 -1.60,792.80"/>
    </edge>
    <edge id=":A2_1" function="internal">
        <lane id=":A2_1_0" index="0" speed="8.00" length="4.07" shape="-1.60,807.20 -1.05,803.35 -0.96,803.20"/>
    </edge>
    <edge id=":A2_2" function="internal">
        <lane id=":A2_2_0" index="0" speed="3.65" length="1.44" shape="-1.60,807.20 -0.80,806.00"/>
    </edge>
    <edge id=":A2_9" function="internal">
        <lane id=":A2_9_0" index="0" speed="8.00" length="10.13" shape="-0.96,803.20 0.60,800.60 3.35,798.95 7.20,798.40"/>
    </edge>
    <edge id=":A2_10" function="internal">
        <lane id=":A2_10_0" index="0" speed="3.65" length="3.23" shape="-0.80,806.00 0.00,805.60 0.80,806.00 1.60,807.20"/>
    </edge>
    <edge id=":A2_3" function="internal">
        <lane id=":A2_3_0" index="0" speed="6.51" length="9.03" shape="7.20,801.60 4.75,801.95 3.00,803.00 1.95,804.75 1.60,807.20"/>
    </edge>
    <edge id=":A2_4" function="internal">
        <lane id=":A2_4_0" index="0" speed="8.00" length="14.19" shape="7.20,801.60 3.35,801.05 0.60,799.40 -1.05,796.65 -1.60,792.80"/>
    </edge>
    <edge id=":A2_5" function="internal">
        <lane id=":A2_5_0" index="0" speed="3.65" length="1.44" shape="7.20,801.60 6.00,800.80"/>
    </edge>
    <edge id=":A2_11" function="internal">
        <lane id=":A2_11_0" index="0" speed="3.65" length="3.23" shape="6.00,800.80 5.60,800.00 6.00,799.20 7.20,798.40"/>
    </edge>
    <edge id=":A2_6" function="internal">
        <lane id=":A2_6_0" index="0" speed="6.51" length="9.03" shape="1.60,792.80 1.95,795.25 3.00,797.00 4.75,798.05 7.20,798.40"/>
    </edge>
    <edge id=":A2_7" function="internal">
        <lane id=":A2_7_0" index="0" speed="13.89" length="14.40" shape="1.60,792.80 1.60,807.20"/>
    </edge>
    <edge id=":A2_8" function="internal">
        <lane id=":A2_8_0" index="0" speed="3.65" length="1.44" shape="1.60,792.80 0.80,794.00"/>
    </edge>
    <edge id=":A2_12" function="internal">
        <lane id=":A2_12_0" index="0" speed="3.65" length="3.23" shape="0.80,794.00 0.00,794.40 -0.80,794.00 -1.60,792.80"/>
    </edge>
    <edge id=":A3_0" function="internal">
        <lane id=":A3_0_0" index="0" speed="13.89" length="14.40" shape="-1.60,1207.20 -1.60,1192.80"/>
    </edge>
    <edge id=":A3_1" function="internal">
        <lane id=":A3_1_0" index="0" speed="8.00" length="4.07" shape="-1.60,1207.20 -1.05,1203.35 -0.96,1203.20"/>
    </edge>
    <edge id=":A3_2" function="internal">
        <lane id=":A3_2_0" index="0" speed="3.65" length="1.44" shape="-1.60,1207.20 -0.80,1206.00"/>
    </edge>
    <edge id=":A3_9" function="internal">
        <lane id=":A3_9_0" index="0" speed="8.00" length="10.13" shape="-0.96,1203.20 0.60,1200.60 3.35,1198.95 7.20,1198.40"/>
    </edge>
    <edge id=":A3_10" function="internal">
        <lane id=":A3_10_0" index="0" speed="3.65" length="3.23" shape="-0.80,1206.00 0.00,1205.60 0.80,1206.00 1.60,1207.20"/>
    </edge>
    <edge id=":A3_3" function="internal">
        <lane id=":A3_3_0" index="0" speed="6.51" length="9.03" shape="7.20,1201.60 4.75,1201.95 3.00,1203.00 1.95,1204.75 1.60,1207.20"/>
    </edge>
    <edge id=":A3_4" function="internal">
        <lane id=":A3_4_0" index="0" speed="8.00" length="14.19" shape="7.20,1201.60 3.35,1201.05 0.60,1199.40 -1.05,1196.65 -1.60,1192.80"/>
    </edge>
    <edge id=":A3_5" function="internal">
        <lane id=":A3_5_0" index="0" speed="3.65" length="1.44" shape="7.20,1201.60 6.00,1200.80"/>
    </edge>
    <edge id=":A3_11" function="internal">
        <lane id=":A3_11_0" index="0" speed="3.65" length="3.23" shape="6.00,1200.80 5.60,1200.00 6.00,1199.20 7.20,1198.40"/>
    </edge>
    <edge id=":A3_6" function="internal">
        <lane id=":A3_6_0" index="0" speed="6.51" length="9.03" shape="1.60,1192.80 1.95,1195.25 3.00,1197.00 4.75,1198.05 7.20,1198.40"/>
    </edge>
    <edge id=":A3_7" function="internal">
        <lane id=":A3_7_0" index="0" speed="13.89" length="14.40" shape="1.60,1192.80 1.60,1207.20"/>
    </edge>
    <edge id=":A3_8" function="internal">
        <lane id=":A3_8_0" index="0" speed="3.65" length="1.44" shape="1.60,1192.80 0.80,1194.00"/>
    </edge>
    <edge id=":A3_12" function="internal">
        <lane id=":A3_12_0" index="0" speed="3.65" length="3.23" shape="0.80,1194.00 0.00,1194.40 -0.80,1194.00 -1.60,1192.80"/>
    </edge>
    <edge id=":A4_0" function="internal">
        <lane id=":A4_0_0" index="0" speed="13.89" length="14.40" shape="-1.60,1607.20 -1.60,1592.80"/>
    </edge>
    <edge id=":A4_1" function="internal">
        <lane id=":A4_1_0" index="0" speed="8.00" length="4.07" shape="-1.60,1607.20 -1.05,1603.35 -0.96,1603.20"/>
    </edge>
    <edge id=":A4_2" function="internal">
        <lane id=":A4_2_0" index="0" speed="3.65" length="1.44" shape="-1.60,1607.20 -0.80,1606.00"/>
    </edge>
    <edge id=":A4_9" function="internal">
        <lane id=":A4_9_0" index="0" speed="8.00" length="10.13" shape="-0.96,1603.20 0.60,1600.60 3.35,1598.95 7.20,1598.40"/>
    </edge>
    <edge id=":A4_10" function="internal">
        <lane id=":A4_10_0" index="0" speed="3.65" length="3.23" shape="-0.80,1606.00 0.00,1605.60 0.80,1606.00 1.60,1607.20"/>
    </edge>
    <edge id=":A4_3" function="internal">
        <lane id=":A4_3_0" index="0" speed="6.51" length="9.03" shape="7.20,1601.60 4.75,1601.95 3.00,1603.00 1.95,1604.75 1.60,1607.20"/>
    </edge>
    <edge id=":A4_4" function="internal">
        <lane id=":A4_4_0" index="0" speed="8.00" length="14.19" shape="7.20,1601.60 3.35,1601.05 0.60,1599.40 -1.05,1596.65 -1.60,1592.80"/>
    </edge>
    <edge id=":A4_5" function="internal">
        <lane id=":A4_5_0" index="0" speed="3.65" length="1.44" shape="7.20,1601.60 6.00,1600.80"/>
    </edge>
    <edge id=":A4_11" function="internal">
        <lane id=":A4_11_0" index="0" speed="3.65" length="3.23" shape="6.00,1600.80 5.60,1600.00 6.00,1599.20 7.20,1598.40"/>
    </edge>
    <edge id=":A4_6" function="internal">
        <lane id=":A4_6_0" index="0" speed="6.51" length="9.03" shape="1.60,1592.80 1.95,1595.25 3.00,1597.00 4.75,1598.05 7.20,1598.40"/>
    </edge>
    <edge id=":A4_7" function="internal">
        <lane id=":A4_7_0" index="0" speed="13.89" length="14.40" shape="1.60,1592.80 1.60,1607.20"/>
    </edge>
    <edge id=":A4_8" function="internal">
        <lane id=":A4_8_0" index="0" speed="3.65" length="1.44" shape="1.60,1592.80 0.80,1594.00"/>
    </edge>
    <edge id=":A4_12" function="internal">
        <lane id=":A4_12_0" index="0" speed="3.65" length="3.23" shape="0.80,1594.00 0.00,1594.40 -0.80,1594.00 -1.60,1592.80"/>
    </edge>
    <edge id=":A5_0" function="internal">
        <lane id=":A5_0_0" index="0" speed="13.89" length="14.40" shape="-1.60,2007.20 -1.60,1992.80"/>
    </edge>
    <edge id=":A5_1" function="internal">
        <lane id=":A5_1_0" index="0" speed="8.00" length="4.07" shape="-1.60,2007.20 -1.05,2003.35 -0.96,2003.20"/>
    </edge>
    <edge id=":A5_2" function="internal">
        <lane id=":A5_2_0" index="0" speed="3.65" length="1.44" shape="-1.60,2007.20 -0.80,2006.00"/>
    </edge>
    <edge id=":A5_9" function="internal">
        <lane id=":A5_9_0" index="0" speed="8.00" length="10.13" shape="-0.96,2003.20 0.60,2000.60 3.35,1998.95 7.20,1998.40"/>
    </edge>
    <edge id=":A5_10" function="internal">
        <lane id=":A5_10_0" index="0" speed="3.65" length="3.23" shape="-0.80,2006.00 0.00,2005.60 0.80,2006.00 1.60,2007.20"/>
    </edge>
    <edge id=":A5_3" function="internal">
        <lane id=":A5_3_0" index="0" speed="6.51" length="9.03" shape="7.20,2001.60 4.75,2001.95 3.00,2003.00 1.95,2004.75 1.60,2007.20"/>
    </edge>
    <edge id=":A5_4" function="internal">
        <lane id=":A5_4_0" index="0" speed="8.00" length="14.19" shape="7.20,2001.60 3.35,2001.05 0.60,1999.40 -1.05,1996.65 -1.60,1992.80"/>
    </edge>
    <edge id=":A5_5" function="internal">
        <lane id=":A5_5_0" index="0" speed="3.65" length="1.44" shape="7.20,2001.60 6.00,2000.80"/>
    </edge>
    <edge id=":A5_11" function="internal">
        <lane id=":A5_11_0" index="0" speed="3.65" length="3.23" shape="6.00,2000.80 5.60,2000.00 6.00,1999.20 7.20,1998.40"/>
    </edge>
    <edge id=":A5_6" function="internal">
        <lane id=":A5_6_0" index="0" speed="6.51" length="9.03" shape="1.60,1992.80 1.95,1995.25 3.00,1997.00 4.75,1998.05 7.20,1998.40"/>
    </edge>
    <edge id=":A5_7" function="internal">
        <lane id=":A5_7_0" index="0" speed="13.89" length="14.40" shape="1.60,1992.80 1.60,2007.20"/>
    </edge>
    <edge id=":A5_8" function="internal">
        <lane id=":A5_8_0" index="0" speed="3.65" length="1.44" shape="1.60,1992.80 0.80,1994.00"/>
    </edge>
    <edge id=":A5_12" function="internal">
        <lane id=":A5_12_0" index="0" speed="3.65" length="3.23" shape="0.80,1994.00 0.00,1994.40 -0.80,1994.00 -1.60,1992.80"/>
    </edge>
    <edge id=":A6_0" function="internal">
        <lane id=":A6_0_0" index="0" speed="13.89" length="14.40" shape="-1.60,2407.20 -1.60,2392.80"/>
    </edge>
    <edge id=":A6_1" function="internal">
        <lane id=":A6_1_0" index="0" speed="8.00" length="4.07" shape="-1.60,2407.20 -1.05,2403.35 -0.96,2403.20"/>
    </edge>
    <edge id=":A6_2" function="internal">
        <lane id=":A6_2_0" index="0" speed="3.65" length="1.44" shape="-1.60,2407.20 -0.80,2406.00"/>
    </edge>
    <edge id=":A6_9" function="internal">
        <lane id=":A6_9_0" index="0" speed="8.00" length="10.13" shape="-0.96,2403.20 0.60,2400.60 3.35,2398.95 7.20,2398.40"/>
    </edge>
    <edge id=":A6_10" function="internal">
        <lane id=":A6_10_0" index="0" speed="3.65" length="3.23" shape="-0.80,2406.00 0.00,2405.60 0.80,2406.00 1.60,2407.20"/>
    </edge>
    <edge id=":A6_3" function="internal">
        <lane id=":A6_3_0" index="0" speed="6.51" length="9.03" shape="7.20,2401.60 4.75,2401.95 3.00,2403.00 1.95,2404.75 1.60,2407.20"/>
    </edge>
    <edge id=":A6_4" function="internal">
        <lane id=":A6_4_0" index="0" speed="8.00" length="14.19" shape="7.20,2401.60 3.35,2401.05 0.60,2399.40 -1.05,2396.65 -1.60,2392.80"/>
    </edge>
    <edge id=":A6_5" function="internal">
        <lane id=":A6_5_0" index="0" speed="3.65" length="1.44" shape="7.20,2401.60 6.00,2400.80"/>
    </edge>
    <edge id=":A6_11" function="internal">
        <lane id=":A6_11_0" index="0" speed="3.65" length="3.23" shape="6.00,2400.80 5.60,2400.00 6.00,2399.20 7.20,2398.40"/>
    </edge>
    <edge id=":A6_6" function="internal">
        <lane id=":A6_6_0" index="0" speed="6.51" length="9.03" shape="1.60,2392.80 1.95,2395.25 3.00,2397.00 4.75,2398.05 7.20,2398.40"/>
    </edge>
    <edge id=":A6_7" function="internal">
        <lane id=":A6_7_0" index="0" speed="13.89" length="14.40" shape="1.60,2392.80 1.60,2407.20"/>
    </edge>
    <edge id=":A6_8" function="internal">
        <lane id=":A6_8_0" index="0" speed="3.65" length="1.44" shape="1.60,2392.80 0.80,2394.00"/>
    </edge>
    <edge id=":A6_12" function="internal">
        <lane id=":A6_12_0" index="0" speed="3.65" length="3.23" shape="0.80,2394.00 0.00,2394.40 -0.80,2394.00 -1.60,2392.80"/>
    </edge>
    <edge id=":A7_0" function="internal">
        <lane id=":A7_0_0" index="0" speed="13.89" length="14.40" shape="-1.60,2807.20 -1.60,2792.80"/>
    </edge>
    <edge id=":A7_1" function="internal">
        <lane id=":A7_1_0" index="0" speed="8.00" length="4.07" shape="-1.60,2807.20 -1.05,2803.35 -0.96,2803.20"/>
    </edge>
    <edge id=":A7_2" function="internal">
        <lane id=":A7_2_0" index="0" speed="3.65" length="1.44" shape="-1.60,2807.20 -0.80,2806.00"/>
    </edge>
    <edge id=":A7_9" function="internal">
        <lane id=":A7_9_0" index="0" speed="8.00" length="10.13" shape="-0.96,2803.20 0.60,2800.60 3.35,2798.95 7.20,2798.40"/>
    </edge>
    <edge id=":A7_10" function="internal">
        <lane id=":A7_10_0" index="0" speed="3.65" length="3.23" shape="-0.80,2806.00 0.00,2805.60 0.80,2806.00 1.60,2807.20"/>
    </edge>
    <edge id=":A7_3" function="internal">
        <lane id=":A7_3_0" index="0" speed="6.51" length="9.03" shape="7.20,2801.60 4.75,2801.95 3.00,2803.00 1.95,2804.75 1.60,2807.20"/>
    </edge>
    <edge id=":A7_4" function="internal">
        <lane id=":A7_4_0" index="0" speed="8.00" length="14.19" shape="7.20,2801.60 3.35,2801.05 0.60,2799.40 -1.05,2796.65 -1.60,2792.80"/>
    </edge>
    <edge id=":A7_5" function="internal">
        <lane id=":A7_5_0" index="0" speed="3.65" length="1.44" shape="7.20,2801.60 6.00,2800.80"/>
    </edge>
    <edge id=":A7_11" function="internal">
        <lane id=":A7_11_0" index="0" speed="3.65" length="3.23" shape="6.00,2800.80 5.60,2800.00 6.00,2799.20 7.20,2798.40"/>
    </edge>
    <edge id=":A7_6" function="internal">
        <lane id=":A7_6_0" index="0" speed="6.51" length="9.03" shape="1.60,2792.80 1.95,2795.25 3.00,2797.00 4.75,2798.05 7.20,2798.40"/>
    </edge>
    <edge id=":A7_7" function="internal">
        <lane id=":A7_7_0" index="0" speed="13.89" length="14.40" shape="1.60,2792.80 1.60,2807.20"/>
    </edge>
    <edge id=":A7_8" function="internal">
        <lane id=":A7_8_0" index="0" speed="3.65" length="1.44" shape="1.60,2792.80 0.80,2794.00"/>
    </edge>
    <edge id=":A7_12" function="internal">
        <lane id=":A7_12_0" index="0" speed="3.65" length="3.23" shape="0.80,2794.00 0.00,2794.40 -0.80,2794.00 -1.60,2792.80"/>
    </edge>
    <edge id=":A8_0" function="internal">
        <lane id=":A8_0_0" index="0" speed="13.89" length="14.40" shape="-1.60,3207.20 -1.60,3192.80"/>
    </edge>
    <edge id=":A8_1" function="internal">
        <lane id=":A8_1_0" index="0" speed="8.00" length="4.07" shape="-1.60,3207.20 -1.05,3203.35 -0.96,3203.20"/>
    </edge>
    <edge id=":A8_2" function="internal">
        <lane id=":A8_2_0" index="0" speed="3.65" length="1.44" shape="-1.60,3207.20 -0.80,3206.00"/>
    </edge>
    <edge id=":A8_9" function="internal">
        <lane id=":A8_9_0" index="0" speed="8.00" length="10.13" shape="-0.96,3203.20 0.60,3200.60 3.35,3198.95 7.20,3198.40"/>
    </edge>
    <edge id=":A8_10" function="internal">
        <lane id=":A8_10_0" index="0" speed="3.65" length="3.23" shape="-0.80,3206.00 0.00,3205.60 0.80,3206.00 1.60,3207.20"/>
    </edge>
    <edge id=":A8_3" function="internal">
        <lane id=":A8_3_0" index="0" speed="6.51" length="9.03" shape="7.20,3201.60 4.75,3201.95 3.00,3203.00 1.95,3204.75 1.60,3207.20"/>
    </edge>
    <edge id=":A8_4" function="internal">
        <lane id=":A8_4_0" index="0" speed="8.00" length="14.19" shape="7.20,3201.60 3.35,3201.05 0.60,3199.40 -1.05,3196.65 -1.60,3192.80"/>
    </edge>
    <edge id=":A8_5" function="internal">
        <lane id=":A8_5_0" index="0" speed="3.65" length="1.44" shape="7.20,3201.60 6.00,3200.80"/>
    </edge>
    <edge id=":A8_11" function="internal">
        <lane id=":A8_11_0" index="0" speed="3.65" length="3.23" shape="6.00,3200.80 5.60,3200.00 6.00,3199.20 7.20,3198.40"/>
    </edge>
    <edge id=":A8_6" function="internal">
        <lane id=":A8_6_0" index="0" speed="6.51" length="9.03" shape="1.60,3192.80 1.95,3195.25 3.00,3197.00 4.75,3198.05 7.20,3198.40"/>
    </edge>
    <edge id=":A8_7" function="internal">
        <lane id=":A8_7_0" index="0" speed="13.89" length="14.40" shape="1.60,3192.80 1.60,3207.20"/>
    </edge>
    <edge id=":A8_8" function="internal">
        <lane id=":A8_8_0" index="0" speed="3.65" length="1.44" shape="1.60,3192.80 0.80,3194.00"/>
    </edge>
    <edge id=":A8_12" function="internal">
        <lane id=":A8_12_0" index="0" speed="3.65" length="3.23" shape="0.80,3194.00 0.00,3194.40 -0.80,3194.00 -1.60,3192.80"/>
    </edge>
    <edge id=":A9_0" function="internal">
        <lane id=":A9_0_0" index="0" speed="13.89" length="14.40" shape="-1.60,3607.20 -1.60,3592.80"/>
    </edge>
    <edge id=":A9_1" function="internal">
        <lane id=":A9_1_0" index="0" speed="8.00" length="4.07" shape="-1.60,3607.20 -1.05,3603.35 -0.96,3603.20"/>
    </edge>
    <edge id=":A9_2" function="internal">
        <lane id=":A9_2_0" index="0" speed="3.65" length="1.44" shape="-1.60,3607.20 -0.80,3606.00"/>
    </edge>
    <edge id=":A9_9" function="internal">
        <lane id=":A9_9_0" index="0" speed="8.00" length="10.13" shape="-0.96,3603.20 0.60,3600.60 3.35,3598.95 7.20,3598.40"/>
    </edge>
    <edge id=":A9_10" function="internal">
        <lane id=":A9_10_0" index="0" speed="3.65" length="3.23" shape="-0.80,3606.00 0.00,3605.60 0.80,3606.00 1.60,3607.20"/>
    </edge>
    <edge id=":A9_3" function="internal">
        <lane id=":A9_3_0" index="0" speed="6.51" length="9.03" shape="7.20,3601.60 4.75,3601.95 3.00,3603.00 1.95,3604.75 1.60,3607.20"/>
    </edge>
    <edge id=":A9_4" function="internal">