<?xml version="1.0" encoding="UTF-8"?>

<!-- generated on 2024-02-25 21:33:00.449980 by randomTrips.py UNKNOWN
<configuration>
    <net-file value="cenary.net.xml"/>
    <output-trip-file value="odtrips.emergency.xml"/>
    <route-file value="cenary.emergency.rou.xml"/>
    <prefix value="emergency"/>
    <trip-attributes value="color=&quot;1,0,0&quot;"/>
    <vehicle-class value="emergency"/>
    <period value="10.0"/>
</configuration>
-->

<!-- generated on 2024-02-25 21:33:00 by Eclipse SUMO duarouter Version 1.19.0
<configuration xmlns:xsi="http://www.w3.org/2001/XMLSchema-instance" xsi:noNamespaceSchemaLocation="http://sumo.dlr.de/xsd/duarouterConfiguration.xsd">

    <input>
        <net-file value="cenary.net.xml"/>
        <route-files value="odtrips.emergency.xml"/>
    </input>

    <output>
        <output-file value="cenary.emergency.rou.xml"/>
        <alternatives-output value="NUL"/>
    </output>

    <time>
        <begin value="0"/>
        <end value="3600"/>
    </time>

    <report>
        <no-warnings value="true"/>
        <ignore-errors value="true"/>
        <no-step-log value="true"/>
    </report>

</configuration>
-->

<routes xmlns:xsi="http://www.w3.org/2001/XMLSchema-instance" xsi:noNamespaceSchemaLocation="http://sumo.dlr.de/xsd/routes_file.xsd">
    <vType id="emergency_emergency" vClass="emergency" color="red"/>
    <vehicle id="emergency0" type="emergency_emergency" depart="0.00">
        <route edges="J3I3 I3H3 H3G3 G3F3 F3E3 E3D3 D3C3 C3B3 B3A3 A3A2 A2B2"/>
    </vehicle>
    <vehicle id="emergency1" type="emergency_emergency" depart="10.00">
        <route edges="E12F12 F12F11 F11F10 F10F9 F9F8 F8F7 F7F6 F6F5 F5F4 F4F3 F3F2 F2E2 E2D2 D2D3"/>
    </vehicle>
    <vehicle id="emergency2" type="emergency_emergency" depart="20.00">
        <route edges="K8L8 L8K8 K8K9 K9K10 K10J10"/>
    </vehicle>
    <vehicle id="emergency3" type="emergency_emergency" depart="30.00">
        <route edges="N11O11 O11O10 O10O9 O9O8 O8O7 O7O6 O6O5 O5O4 O4O3 O3N3 N3M3 M3L3 L3K3 K3J3 J3I3 I3H3 H3G3 G3F3 F3E3 E3D3 D3C3 C3B3 B3A3"/>
    </vehicle>
    <vehicle id="emergency4" type="emergency_emergency" depart="40.00">
        <route edges="G14H14 H14H13 H13H12 H12H11 H11H10 H10H9 H9H8 H8H7 H7H6 H6H5 H5H4 H4G4 G4F4 F4E4 E4D4 D4C4 C4B4 B4A4 A4A3"/>
    </vehicle>
    <vehicle id="emergency5" type="emergency_emergency" depart="50.00">
        <route edges="D1D2 D2D3 D3E3 E3F3 F3G3 G3H3 H3I3"/>
    </vehicle>
    <vehicle id="emergency6" type="emergency_emergency" depart="60.00">
        <route edges="A3A2 A2A3 A3A4 A4A5 A5A6 A6A7 A7A8 A8A9 A9A10 A10A11 A11B11 B11C11 C11D11 D11D10"/>
    </vehicle>
    <vehicle id="emergency7" type="emergency_emergency" depart="70.00">
        <route edges="J5I5 I5I6 I6I7 I7I8 I8I9 I9I10 I10I11 I11I10"/>
    </vehicle>
    <vehicle id="emergency8" type="emergency_emergency" depart="80.00">
        <route edges="D2C2 C2C3 C3C4 C4C5 C5C6 C6D6 D6E6 E6F6 F6G6 G6H6 H6I6 I6J6"/>
    </vehicle>
    <vehicle id="emergency9" type="emergency_emergency" depart="90.00">
        <route edges="L9L8 L8K8 K8J8 J8I8 I8H8 H8G8 G8F8 F8E8 E8D8 D8C8 C8B8 B8A8 A8A9 A9A10 A10A11 A11A10"/>
    </vehicle>
    <vehicle id="emergency10" type="emergency_emergency" depart="100.00">
        <route edges="L8M8 M8L8 L8K8 K8K9 K9K10 K10K11 K11K12 K12K13 K13K14 K14L14"/>
    </vehicle>
    <vehicle id="emergency11" type="emergency_emergency" depart="110.00">
        <route edges="F11G11 G11G10 G10G9 G9G8 G8G7 G7G6 G6G5 G5G4 G4G3 G3G2 G2F2 F2E2 E2D2 D2C2 C2D2"/>
    </vehicle>
    <vehicle id="emergency12" type="emergency_emergency" depart="120.00">
        <route edges="O11O12 O12O11 O11N11 N11M11 M11L11 L11K11 K11J11 J11I11 I11H11 H11G11 G11F11 F11E11"/>
    </vehicle>
    <vehicle id="emergency13" type="emergency_emergency" depart="130.00">
        <route edges="B4A4 A4A5 A5B5 B5A5"/>
    </vehicle>
    <vehicle id="emergency14" type="emergency_emergency" depart="140.00">
        <route edges="M3L3 L3K3 K3J3 J3J2 J2J1 J1J0 J0I0"/>
    </vehicle>
    <vehicle id="emergency15" type="emergency_emergency" depart="150.00">
        <route edges="L9K9 K9K8 K8K7 K7K6"/>
    </vehicle>
    <vehicle id="emergency16" type="emergency_emergency" depart="160.00">
        <route edges="I0I1 I1I2 I2J2 J2K2 K2L2 L2M2 M2N2 N2O2 O2O1"/>
    </vehicle>
    <vehicle id="emergency17" type="emergency_emergency" depart="170.00">
        <route edges="F6E6 E6E7 E7E8 E8E9 E9E10 E10E11 E11E12 E12F12 F12G12 G12H12 H12I12 I12J12"/>
    </vehicle>
    <vehicle id="emergency18" type="emergency_emergency" depart="180.00">
        <route edges="M13L13 L13K13 K13J13 J13J12 J12J11"/>
    </vehicle>
    <vehicle id="emergency19" type="emergency_emergency" depart="190.00">
        <route edges="M6L6 L6K6 K6J6 J6I6 I6I5 I5I4 I4I3"/>
    </vehicle>
    <vehicle id="emergency20" type="emergency_emergency" depart="200.00">
        <route edges="K2J2 J2I2 I2H2 H2G2 G2F2 F2E2 E2D2 D2C2 C2B2 B2A2 A2A3 A3A4 A4A5 A5A6 A6A7 A7A8 A8A9"/>
    </vehicle>
    <vehicle id="emergency21" type="emergency_emergency" depart="210.00">
        <route edges="D3D4 D4E4 E4E3 E3E2 E2D2"/>
    </vehicle>
    <vehicle id="emergency22" type="emergency_emergency" depart="220.00">
        <route edges="B1B2 B2C2 C2D2 D2D3 D3D4 D4D5"/>
    </vehicle>
    <vehicle id="emergency23" type="emergency_emergency" depart="230.00">
        <route edges="B5C5 C5D5 D5D6 D6D7 D7D8 D8D9 D9D10 D10D11 D11D12 D12D13 D13E13 E13E12"/>
    </vehicle>
    <vehicle id="emergency24" type="emergency_emergency" depart="240.00">
        <route edges="J2I2 I2H2 H2G2 G2F2 F2F3 F3F2"/>
    </vehicle>
    <vehicle id="emergency25" type="emergency_emergency" depart="250.00">
        <route edges="F4F3 F3E3 E3D3 D3D4 D4D5 D5D6 D6D7 D7D8 D8D9 D9D10 D10D11 D11D12 D12D13 D13D12"/>
    </vehicle>
    <vehicle id="emergency26" type="emergency_emergency" depart="260.00">
        <route edges="E11D11 D11E11 E11F11 F11G11 G11H11 H11I11 I11J11 J11K11 K11L11 L11M11 M11N11 N11N10 N10N9 N9N8 N8N7 N7N6"/>
    </vehicle>
    <vehicle id="emergency27" type="emergency_emergency" depart="270.00">
        <route edges="J4K4 K4J4 J4J5 J5J6 J6J7 J7J8 J8J9 J9J10 J10J11"/>
    </vehicle>
    <vehicle id="emergency28" type="emergency_emergency" depart="280.00">
        <route edges="C6B6 B6B7 B7C7 C7D7 D7E7 E7F7 F7G7 G7H7 H7I7 I7J7 J7K7 K7K6"/>
    </vehicle>
    <vehicle id="emergency29" type="emergency_emergency" depart="290.00">
        <route edges="C4C5 C5C6 C6D6 D6E6 E6F6 F6F5"/>
    </vehicle>
    <vehicle id="emergency30" type="emergency_emergency" depart="300.00">
        <route edges="O7N7 N7M7 M7L7 L7K7 K7J7 J7J6 J6J5 J5J4 J4J3 J3I3"/>
    </vehicle>
    <vehicle id="emergency31" type="emergency_emergency" depart="310.00">
        <route edges="I13J13 J13J12 J12J11 J11K11 K11L11"/>
    </vehicle>
    <vehicle id="emergency32" type="emergency_emergency" depart="320.00">
        <route edges="M2L2 L2L3"/>
    </vehicle>
    <vehicle id="emergency33" type="emergency_emergency" depart="330.00">
        <route edges="D3E3 E3D3 D3C3 C3B3 B3A3 A3A4 A4A5"/>
    </vehicle>
    <vehicle id="emergency34" type="emergency_emergency" depart="340.00">
        <route edges="E7E6 E6E7 E7E8 E8E9 E9E10 E10E11 E11D11"/>
    </vehicle>
    <vehicle id="emergency35" type="emergency_emergency" depart="350.00">
        <route edges="D13E13 E13F13 F13G13 G13G12 G12G11 G11G10 G10G9 G9G8 G8H8 H8I8 I8J8 J8K8 K8L8 L8M8 M8N8 N8O8"/>
    </vehicle>
    <vehicle id="emergency36" type="emergency_emergency" depart="360.00">
        <route edges="M9M10 M10M9 M9M8 M8M7 M7L7 L7K7 K7J7 J7I7 I7H7 H7G7 G7F7 F7E7 E7E6"/>
    </vehicle>
    <vehicle id="emergency37" type="emergency_emergency" depart="370.00">
        <route edges="J6J5 J5I5 I5H5 H5G5 G5F5 F5F6 F6F7 F7F8 F8F9 F9G9"/>
    </vehicle>
    <vehicle id="emergency38" type="emergency_emergency" depart="380.00">
        <route edges="N2O2 O2N2 N2M2 M2L2 L2K2 K2J2 J2I2 I2H2 H2G2 G2G3 G3G4 G4G5 G5G6 G6G7 G7G8 G8G9"/>
    </vehicle>
    <vehicle id="emergency39" type="emergency_emergency" depart="390.00">
        <route edges="E10E9 E9E8 E8E7 E7D7 D7D8"/>
    </vehicle>
    <vehicle id="emergency40" type="emergency_emergency" depart="400.00">
        <route edges="I1H1 H1G1 G1F1 F1E1 E1E2 E2E3 E3E4 E4E5 E5E6 E6E7 E7E8 E8E9 E9E10 E10D10"/>
    </vehicle>
    <vehicle id="emergency41" type="emergency_emergency" depart="410.00">
        <route edges="I6H6 H6H7 H7H8 H8H9 H9H10 H10H11 H11H12 H12H13 H13I13 I13J13 J13K13 K13L13 L13M13 M13N13 N13M13"/>
    </vehicle>
    <vehicle id="emergency42" type="emergency_emergency" depart="420.00">
        <route edges="G0H0 H0G0 G0F0 F0E0 E0D0 D0D1 D1E1"/>
    </vehicle>
    <vehicle id="emergency43" type="emergency_emergency" depart="430.00">
        <route edges="O9N9 N9M9 M9L9 L9K9 K9J9 J9I9 I9I8 I8I7 I7I6 I6I5 I5I4 I4H4 H4I4"/>
    </vehicle>
    <vehicle id="emergency44" type="emergency_emergency" depart="440.00">
        <route edges="B3C3 C3B3 B3A3 A3A4 A4A5 A5A6 A6A7 A7A8 A8B8"/>
    </vehicle>
    <vehicle id="emergency45" type="emergency_emergency" depart="450.00">
        <route edges="B7C7 C7D7 D7E7 E7F7 F7G7 G7H7 H7I7 I7I8 I8I9 I9I10 I10I11 I11I12 I12I13 I13I14 I14J14 J14J13"/>
    </vehicle>
    <vehicle id="emergency46" type="emergency_emergency" depart="460.00">
        <route edges="L6K6 K6J6 J6I6 I6H6 H6G6 G6G7 G7G8 G8G9 G9G10 G10G11 G11G12 G12G13 G13G14 G14H14"/>
    </vehicle>
    <vehicle id="emergency47" type="emergency_emergency" depart="470.00">
        <route edges="B11C11 C11D11 D11E11 E11E10 E10E9 E9E8 E8E7 E7E6 E6F6 F6G6"/>
    </vehicle>
    <vehicle id="emergency48" type="emergency_emergency" depart="480.00">
        <route edges="O8O9 O9O8 O8N8 N8M8 M8L8 L8K8 K8J8 J8I8 I8H8 H8I8"/>
    </vehicle>
    <vehicle id="emergency49" type="emergency_emergency" depart="490.00">
        <route edges="O1O2 O2O3 O3O4 O4O5 O5O6 O6N6 N6M6 M6L6"/>
    </vehicle>
    <vehicle id="emergency50" type="emergency_emergency" depart="500.00">
        <route edges="A12A13 A13B13 B13C13 C13D13 D13E13 E13F13 F13G13 G13H13 H13I13 I13J13 J13K13 K13K12 K12K11 K11K10 K10K9 K9K8 K8K7 K7K6 K6K5 K5K6"/>
    </vehicle>
    <vehicle id="emergency51" type="emergency_emergency" depart="510.00">
        <route edges="K11J11 J11I11 I11I10 I10I9 I9I8 I8I7 I7I6 I6I5 I5I4 I4I3 I3I2 I2I1 I1I0 I0J0"/>
    </vehicle>
    <vehicle id="emergency52" type="emergency_emergency" depart="520.00">
        <route edges="E11D11 D11E11 E11F11 F11G11 G11H11 H11I11 I11J11 J11J10 J10J9 J9J8 J8J7 J7J6 J6J5 J5J4 J4J3 J3J2"/>
    </vehicle>
    <vehicle id="emergency53" type="emergency_emergency" depart="530.00">
        <route edges="B8A8 A8B8 B8C8 C8D8 D8E8 E8F8 F8G8 G8G7 G7G6 G6G5 G5G4 G4G3 G3G4"/>
    </vehicle>
    <vehicle id="emergency54" type="emergency_emergency" depart="540.00">
        <route edges="G7G8 G8G9 G9G10 G10H10 H10I10 I10J10 J10K10 K10L10 L10M10 M10N10 N10O10 O10O9"/>
    </vehicle>
    <vehicle id="emergency55" type="emergency_emergency" depart="550.00">
        <route edges="M9L9 L9K9 K9J9 J9I9 I9H9 H9G9 G9F9 F9E9 E9E10 E10E11"/>
    </vehicle>
    <vehicle id="emergency56" type="emergency_emergency" depart="560.00">
        <route edges="H2I2 I2H2 H2G2 G2F2 F2E2 E2D2 D2C2 C2C3 C3C4 C4C5 C5C6 C6C7 C7D7"/>
    </vehicle>
    <vehicle id="emergency57" type="emergency_emergency" depart="570.00">
        <route edges="N2N1 N1M1 M1M2 M2M3 M3M4 M4M5 M5M6 M6M7 M7M8 M8L8"/>
    </vehicle>
    <vehicle id="emergency58" type="emergency_emergency" depart="580.00">
        <route edges="E3F3 F3F2 F2G2 G2H2 H2I2 I2J2 J2K2"/>
    </vehicle>
    <vehicle id="emergency59" type="emergency_emergency" depart="590.00">
        <route edges="J10J11 J11J10 J10J9 J9J8 J8J7 J7J6 J6J5 J5J4 J4J3 J3J2 J2I2 I2H2 H2G2 G2F2 F2E2 E2D2 D2C2 C2C1"/>
    </vehicle>
    <vehicle id="emergency60" type="emergency_emergency" depart="600.00">
        <route edges="L13L14 L14L13 L13L12 L12L11 L11L10 L10K10 K10J10 J10I10 I10I11"/>
    </vehicle>
    <vehicle id="emergency61" type="emergency_emergency" depart="610.00">
        <route edges="L3L2 L2K2 K2J2 J2I2 I2H2 H2H3 H3H4 H4H5 H5H6 H6H7 H7H8 H8H9 H9G9"/>
    </vehicle>
    <vehicle id="emergency62" type="emergency_emergency" depart="620.00">
        <route edges="A0A1 A1A2 A2A3 A3A4 A4A5 A5A6 A6A7 A7A8 A8A9 A9B9 B9C9 C9D9 D9E9 E9E10"/>
    </vehicle>
    <vehicle id="emergency63" type="emergency_emergency" depart="630.00">
        <route edges="A1A0 A0B0 B0C0 C0D0 D0E0 E0F0 F0G0 G0H0 H0I0 I0J0 J0K0 K0L0 L0M0 M0N0 N0N1 N1N2 N2N3 N3N4 N4N5 N5O5"/>
    </vehicle>
    <vehicle id="emergency64" type="emergency_emergency" depart="640.00">
        <route edges="M9N9 N9M9 M9M10 M10M11 M11M12 M12M13 M13M14"/>
    </vehicle>
    <vehicle id="emergency65" type="emergency_emergency" depart="650.00">
        <route edges="E5F5 F5E5 E5D5 D5C5 C5B5 B5B6 B6B7 B7B8 B8B9 B9B10 B10B9"/>
    </vehicle>
    <vehicle id="emergency66" type="emergency_emergency" depart="660.00">
        <route edges="M9M8 M8M9 M9N9 N9N8"/>
    </vehicle>
    <vehicle id="emergency67" type="emergency_emergency" depart="670.00">
        <route edges="B2B3 B3B4 B4C4 C4D4 D4E4 E4F4 F4G4 G4H4 H4H5 H5H6 H6H7 H7H8 H8H9 H9H10 H10H11 H11H12 H12H13 H13H14"/>
    </vehicle>
    <vehicle id="emergency68" type="emergency_emergency" depart="680.00">
        <route edges="B13A13 A13B13 B13C13 C13D13 D13E13 E13F13 F13G13 G13H13 H13I13 I13J13 J13K13 K13L13 L13K13"/>
    </vehicle>
    <vehicle id="emergency69" type="emergency_emergency" depart="690.00">
        <route edges="L14L13 L13L12 L12L11 L11L10 L10K10 K10J10 J10I10 I10H10 H10G10 G10F10 F10E10 E10D10 D10C10 C10D10"/>
    </vehicle>
    <vehicle id="emergency70" type="emergency_emergency" depart="700.00">
        <route edges="H11H10 H10H11 H11H12 H12I12 I12I11"/>
    </vehicle>
    <vehicle id="emergency71" type="emergency_emergency" depart="710.00">
        <route edges="E10E9 E9E8 E8F8 F8G8 G8H8 H8I8 I8J8 J8K8 K8L8 L8M8 M8M7"/>
    </vehicle>
    <vehicle id="emergency72" type="emergency_emergency" depart="720.00">
        <route edges="G1F1 F1E1 E1D1 D1D2 D2D3 D3D4 D4D5 D5D6 D6D7 D7D8 D8D9 D9D10 D10D11 D11D12 D12D13 D13E13"/>
    </vehicle>
    <vehicle id="emergency73" type="emergency_emergency" depart="730.00">
        <route edges="I10I11 I11J11 J11K11 K11K10 K10K9 K9K8 K8K7 K7K8"/>
    </vehicle>
    <vehicle id="emergency74" type="emergency_emergency" depart="740.00">
        <route edges="D11D12 D12E12 E12E11 E11E10 E10E9 E9E8 E8E7 E7E6 E6E7"/>
    </vehicle>
    <vehicle id="emergency75" type="emergency_emergency" depart="750.00">
        <route edges="O8O7 O7O6 O6O5 O5N5 N5M5 M5L5 L5K5 K5J5 J5I5"/>
    </vehicle>
    <vehicle id="emergency76" type="emergency_emergency" depart="760.00">
        <route edges="G4G3 G3G4 G4G5 G5G6 G6H6 H6H5"/>
    </vehicle>
    <vehicle id="emergency77" type="emergency_emergency" depart="770.00">
        <route edges="C0B0 B0B1 B1B2 B2C2 C2D2 D2E2"/>
    </vehicle>
    <vehicle id="emergency78" type="emergency_emergency" depart="780.00">
        <route edges="F11F10 F10F9 F9F8 F8F7 F7F6 F6G6 G6H6 H6I6 I6J6"/>
    </vehicle>
    <vehicle id="emergency79" type="emergency_emergency" depart="790.00">
        <route edges="D4C4 C4D4 D4D3 D3D2 D2D1 D1E1"/>
    </vehicle>
    <vehicle id="emergency80" type="emergency_emergency" depart="800.00">
        <route edges="B13B12 B12B11 B11B10 B10B9 B9B8 B8B7 B7B6 B6B5 B5B4 B4B3 B3B2 B2B1 B1C1 C1D1 D1E1 E1F1 F1G1 G1H1 H1I1 I1J1 J1J0"/>
    </vehicle>
    <vehicle id="emergency81" type="emergency_emergency" depart="810.00">
        <route edges="D3E3 E3F3 F3G3 G3H3 H3I3 I3J3 J3K3 K3L3 L3M3 M3N3 N3N4 N4N5 N5N6 N6N7 N7N8 N8N9 N9N10 N10N11 N11N12 N12N13 N13N14 N14O14"/>
    </vehicle>
    <vehicle id="emergency82" type="emergency_emergency" depart="820.00">
        <route edges="M5N5 N5M5 M5L5 L5K5 K5J5 J5I5 I5H5 H5G5 G5F5 F5E5 E5D5 D5C5 C5B5 B5B6 B6B7 B7B8 B8B9 B9B10 B10B11 B11B12 B12B13 B13B12"/>
    </vehicle>
    <vehicle id="emergency83" type="emergency_emergency" depart="830.00">
        <route edges="D5D6 D6D7 D7D8 D8D9 D9E9 E9F9 F9G9 G9H9 H9I9 I9J9 J9I9"/>
    </vehicle>
    <vehicle id="emergency84" type="emergency_emergency" depart="840.00">
        <route edges="D14D13 D13D12 D12D11 D11C11 C11D11"/>
    </vehicle>
    <vehicle id="emergency85" type="emergency_emergency" depart="850.00">
        <route edges="N7M7 M7L7 L7K7 K7J7 J7I7 I7I6 I6I5 I5I4 I4I3 I3H3"/>
    </vehicle>
    <vehicle id="emergency86" type="emergency_emergency" depart="860.00">
        <route edges="H10I10 I10J10 J10K10 K10L10 L10L9 L9L8 L8L7 L7L6 L6L5 L5L4 L4L5"/>
    </vehicle>
    <vehicle id="emergency87" type="emergency_emergency" depart="870.00">
        <route edges="L9L10 L10L9 L9L8 L8L7 L7L6 L6L5 L5L4 L4L3 L3L2 L2L1 L1L0 L0K0 K0J0 J0I0 I0H0 H0G0 G0F0 F0E0 E0D0 D0C0"/>
    </vehicle>
    <vehicle id="emergency88" type="emergency_emergency" depart="880.00">
        <route edges="B5A5 A5A4 A4A3 A3A2 A2B2 B2C2 C2D2 D2E2 E2F2 F2G2 G2H2"/>
    </vehicle>
    <vehicle id="emergency89" type="emergency_emergency" depart="890.00">
        <route edges="G1F1 F1G1 G1H1 H1H0 H0H1"/>
    </vehicle>
    <vehicle id="emergency90" type="emergency_emergency" depart="900.00">
        <route edges="K7K6 K6K5 K5K4 K4K3 K3K2 K2K1 K1K0 K0J0"/>
    </vehicle>
    <vehicle id="emergency91" type="emergency_emergency" depart="910.00">
        <route edges="O5O4 O4N4 N4M4 M4L4 L4K4 K4J4 J4I4 I4H4 H4G4 G4F4 F4E4 E4D4 D4C4 C4B4 B4B5 B5B4"/>
    </vehicle>
    <vehicle id="emergency92" type="emergency_emergency" depart="920.00">
        <route edges="G10G9 G9F9 F9F10 F10F11 F11G11"/>
    </vehicle>
    <vehicle id="emergency93" type="emergency_emergency" depart="930.00">
        <route edges="M6L6 L6K6 K6J6 J6I6 I6H6 H6G6 G6F6 F6E6 E6D6 D6D7 D7E7"/>
    </vehicle>
    <vehicle id="emergency94" type="emergency_emergency" depart="940.00">
        <route edges="D0C0 C0C1 C1C2 C2C3 C3C4 C4C5 C5C6 C6D6 D6E6 E6F6 F6G6 G6G5"/>
    </vehicle>
    <vehicle id="emergency95" type="emergency_emergency" depart="950.00">
        <route edges="G14H14 H14H13 H13G13 G13F13 F13E13 E13E12"/>
    </vehicle>
    <vehicle id="emergency96" type="emergency_emergency" depart="960.00">
        <route edges="D8C8 C8D8 D8E8 E8F8 F8G8 G8H8 H8I8 I8J8 J8K8 K8L8 L8M8 M8N8 N8N7 N7N6 N6N5 N5N4 N4N5"/>
    </vehicle>
    <vehicle id="emergency97" type="emergency_emergency" depart="970.00">
        <route edges="G5G4 G4G5 G5G6 G6H6 H6I6 I6J6 J6K6 K6L6 L6M6 M6L6"/>
    </vehicle>
    <vehicle id="emergency98" type="emergency_emergency" depart="980.00">
        <route edges="I12I13 I13I12 I12I11 I11I10 I10I9 I9H9 H9G9 G9F9 F9E9 E9D9 D9C9 C9B9 B9A9 A9B9"/>
    </vehicle>
    <vehicle id="emergency99" type="emergency_emergency" depart="990.00">
        <route edges="O9O8 O8N8 N8M8 M8M9 M9M10 M10M11 M11M12 M12M13 M13M14 M14N14"/>
    </vehicle>
    <vehicle id="emergency100" type="emergency_emergency" depart="1000.00">
        <route edges="O1N1 N1N2 N2N3 N3N4 N4N5 N5N4"/>
    </vehicle>
    <vehicle id="emergency101" type="emergency_emergency" depart="1010.00">
        <route edges="M3M2 M2L2 L2K2 K2J2 J2I2 I2I3 I3I4 I4I5 I5H5 H5G5 G5F5 F5E5 E5D5 D5C5 C5B5"/>
    </vehicle>
    <vehicle id="emergency102" type="emergency_emergency" depart="1020.00">
        <route edges="H13H12 H12G12 G12F12 F12E12 E12D12 D12D13 D13D14 D14D13"/>
    </vehicle>
    <vehicle id="emergency103" type="emergency_emergency" depart="1030.00">
        <route edges="G10F10 F10E10 E10D10 D10C10 C10B10 B10C10"/>
    </vehicle>
    <vehicle id="emergency104" type="emergency_emergency" depart="1040.00">
        <route edges="F6F5 F5G5 G5H5 H5I5 I5J5 J5K5 K5L5 L5M5 M5N5 N5O5 O5O6"/>
    </vehicle>
    <vehicle id="emergency105" type="emergency_emergency" depart="1050.00">
        <route edges="E10E9 E9E8 E8E7 E7E6 E6E5 E5E4 E4F4 F4G4 G4H4 H4I4 I4J4 J4K4 K4L4 L4L3"/>
    </vehicle>
    <vehicle id="emergency106" type="emergency_emergency" depart="1060.00">
        <route edges="G7H7 H7H6 H6H5 H5H4 H4H3 H3H2 H2H1 H1G1 G1F1"/>
    </vehicle>
    <vehicle id="emergency107" type="emergency_emergency" depart="1070.00">
        <route edges="O11O12 O12O11 O11O10 O10O9 O9O8 O8O9"/>
    </vehicle>
    <vehicle id="emergency108" type="emergency_emergency" depart="1080.00">
        <route edges="I13I14 I14J14 J14K14 K14K13 K13K12 K12K11 K11K10 K10K9 K9K8 K8K7 K7K6 K6K5 K5J5"/>
    </vehicle>
    <vehicle id="emergency109" type="emergency_emergency" depart="1090.00">
        <route edges="C2D2 D2E2 E2E3 E3E4"/>
    </vehicle>
    <vehicle id="emergency110" type="emergency_emergency" depart="1100.00">
        <route edges="O1N1 N1M1 M1L1 L1K1 K1J1 J1I1 I1I2 I2I3 I3I4 I4J4"/>
    </vehicle>
    <vehicle id="emergency111" type="emergency_emergency" depart="1110.00">
        <route edges="I10J10 J10K10 K10L10 L10L9"/>
    </vehicle>
    <vehicle id="emergency112" type="emergency_emergency" depart="1120.00">
        <route edges="B10B9 B9B8 B8B7 B7B6 B6B5 B5C5 C5D5 D5E5 E5F5 F5G5 G5H5 H5I5 I5J5"/>
    </vehicle>
    <vehicle id="emergency113" type="emergency_emergency" depart="1130.00">
        <route edges="H3H2 H2H3 H3H4 H4I4 I4J4 J4K4 K4L4 L4M4 M4M3"/>
    </vehicle>
    <vehicle id="emergency114" type="emergency_emergency" depart="1140.00">
        <route edges="C3C2 C2C3 C3C4 C4C5 C5C6 C6C7 C7C8 C8C9 C9C10 C10C11 C11C12 C12D12 D12E12 E12F12 F12G12 G12H12 H12I12 I12J12 J12K12 K12L12 L12M12 M12N12 N12O12 O12O13"/>
    </vehicle>
    <vehicle id="emergency115" type="emergency_emergency" depart="1150.00">
        <route edges="B1B2 B2C2 C2C3 C3C4 C4C5 C5C6 C6C7 C7C8 C8C9 C9C10"/>
    </vehicle>
    <vehicle id="emergency116" type="emergency_emergency" depart="1160.00">
        <route edges="I8H8 H8I8 I8J8 J8K8 K8K7 K7K6 K6K5 K5K4 K4K3 K3K2 K2K1 K1K0 K0L0"/>
    </vehicle>
    <vehicle id="emergency117" type="emergency_emergency" depart="1170.00">
        <route edges="D5C5 C5B5 B5B6 B6B7 B7B8 B8B9 B9C9"/>
    </vehicle>
    <vehicle id="emergency118" type="emergency_emergency" depart="1180.00">
        <route edges="N11N10 N10N9 N9N8 N8N7 N7M7 M7L7 L7K7 K7J7 J7I7 I7H7 H7G7 G7F7 F7E7 E7D7 D7D6"/>
    </vehicle>
    <vehicle id="emergency119" type="emergency_emergency" depart="1190.00">
        <route edges="I8H8 H8H9 H9I9 I9J9 J9J10 J10J11 J11J12 J12J13"/>
    </vehicle>
    <vehicle id="emergency120" type="emergency_emergency" depart="1200.00">
        <route edges="G14F14 F14G14 G14H14 H14I14 I14I13 I13I12 I12I11 I11I10 I10I9 I9I8 I8I7 I7I6 I6I5 I5J5"/>
    </vehicle>
    <vehicle id="emergency121" type="emergency_emergency" depart="1210.00">
        <route edges="H7H8 H8I8 I8J8 J8K8 K8L8 L8M8 M8N8 N8N7 N7M7"/>
    </vehicle>
    <vehicle id="emergency122" type="emergency_emergency" depart="1220.00">
        <route edges="D12D11 D11D10 D10D9 D9D8 D8D7 D7D6 D6D5 D5E5 E5F5 F5G5 G5H5 H5I5 I5J5 J5K5 K5K4 K4K5"/>
    </vehicle>
    <vehicle id="emergency123" type="emergency_emergency" depart="1230.00">
        <route edges="D5E5 E5F5 F5F6 F6F7 F7F8 F8F9 F9G9"/>
    </vehicle>
    <vehicle id="emergency124" type="emergency_emergency" depart="1240.00">
        <route edges="J9K9 K9K8 K8K7 K7K6 K6K5 K5K4 K4J4 J4I4 I4H4 H4G4 G4F4 F4E4 E4D4"/>
    </vehicle>
    <vehicle id="emergency125" type="emergency_emergency" depart="1250.00">
        <route edges="E7E8 E8E9 E9E10 E10E11 E11F11 F11G11 G11H11 H11I11 I11J11 J11K11 K11L11 L11L10"/>
    </vehicle>
    <vehicle id="emergency126" type="emergency_emergency" depart="1260.00">
        <route edges="B13B14 B14C14 C14D14 D14E14 E14F14 F14G14 G14G13 G13G12 G12G11 G11G10 G10G9 G9G8 G8G7"/>
    </vehicle>
    <vehicle id="emergency127" type="emergency_emergency" depart="1270.00">
        <route edges="O9O10 O10O9 O9O8 O8O9"/>
    </vehicle>
    <vehicle id="emergency128" type="emergency_emergency" depart="1280.00">
        <route edges="B13C13 C13C14 C14D14 D14D13"/>
    </vehicle>
    <vehicle id="emergency129" type="emergency_emergency" depart="1290.00">
        <route edges="E10E9 E9E8 E8E7 E7F7 F7G7 G7H7 H7I7 I7J7 J7K7 K7L7 L7M7 M7N7 N7N6 N6N7"/>
    </vehicle>
    <vehicle id="emergency130" type="emergency_emergency" depart="1300.00">
        <route edges="N0M0 M0M1 M1M2 M2M3 M3M4 M4M5 M5M6 M6M7 M7M8 M8M9 M9N9"/>
    </vehicle>
    <vehicle id="emergency131" type="emergency_emergency" depart="1310.00">
        <route edges="F4F3 F3E3 E3D3 D3C3 C3C2"/>
    </vehicle>
    <vehicle id="emergency132" type="emergency_emergency" depart="1320.00">
        <route edges="M14L14 L14L13 L13L12 L12L11 L11L10 L10L9 L9L8 L8L7 L7L6 L6L5 L5L4 L4L3 L3L2 L2L1 L1K1 K1L1"/>
    </vehicle>
    <vehicle id="emergency133" type="emergency_emergency" depart="1330.00">
        <route edges="J10K10 K10L10 L10M10 M10N10 N10O10 O10O9 O9O8 O8O7 O7O6 O6O5"/>
    </vehicle>
    <vehicle id="emergency134" type="emergency_emergency" depart="1340.00">
        <route edges="J6I6 I6H6 H6G6 G6F6 F6E6 E6D6 D6C6 C6B6 B6A6 A6A7 A7A8 A8A9 A9A10 A10A11 A11A12"/>
    </vehicle>
    <vehicle id="emergency135" type="emergency_emergency" depart="1350.00">
        <route edges="M10M9 M9M8 M8M7 M7M6 M6M5 M5M4 M4L4 L4K4 K4J4 J4I4 I4H4 H4G4 G4F4 F4E4 E4D4"/>
    </vehicle>
    <vehicle id="emergency136" type="emergency_emergency" depart="1360.00">
        <route edges="J8I8 I8J8 J8J7 J7K7 K7L7 L7M7 M7N7 N7O7"/>
    </vehicle>
    <vehicle id="emergency137" type="emergency_emergency" depart="1370.00">
        <route edges="C12B12 B12B11 B11B10 B10B9 B9B8 B8C8"/>
    </vehicle>
    <vehicle id="emergency138" type="emergency_emergency" depart="1380.00">
        <route edges="B7A7 A7A8 A8A9 A9A10 A10A11 A11A12 A12A13 A13B13 B13C13 C13D13 D13E13 E13F13 F13G13 G13H13 H13I13 I13H13"/>
    </vehicle>
    <vehicle id="emergency139" type="emergency_emergency" depart="1390.00">
        <route edges="E12D12 D12E12 E12F12 F12G12 G12H12 H12I12 I12J12 J12J11 J11J10 J10J9 J9J8 J8J7 J7J6 J6J5 J5J4 J4J3 J3J2 J2J1 J1J0 J0J1"/>
    </vehicle>
    <vehicle id="emergency140" type="emergency_emergency" depart="1400.00">
        <route edges="K4L4 L4K4 K4J4 J4I4 I4H4 H4G4 G4F4 F4E4 E4D4 D4D5 D5D6 D6D7 D7D8 D8D9 D9D10 D10D11 D11D12 D12D11"/>
    </vehicle>
    <vehicle id="emergency141" type="emergency_emergency" depart="1410.00">
        <route edges="J1K1 K1J1 J1I1 I1H1 H1G1 G1F1 F1E1 E1E2 E2E3 E3E4 E4E5 E5E6 E6E7 E7E8 E8E9 E9E10 E10E11"/>
    </vehicle>
    <vehicle id="emergency142" type="emergency_emergency" depart="1420.00">
        <route edges="H14G14 G14H14 H14I14 I14J14 J14K14 K14L14 L14M14 M14N14 N14O14"/>
    </vehicle>
    <vehicle id="emergency143" type="emergency_emergency" depart="1430.00">
        <route edges="M2N2 N2M2 M2M3 M3M4 M4L4 L4K4 K4J4 J4I4 I4H4 H4G4 G4F4 F4E4 E4D4 D4C4 C4B4 B4A4"/>
    </vehicle>
    <vehicle id="emergency144" type="emergency_emergency" depart="1440.00">
        <route edges="G1F1 F1E1 E1E2 E2E3 E3E4 E4E5 E5E6 E6E7 E7E8 E8E9 E9E10 E10E11 E11E12 E12E13 E13D13"/>
    </vehicle>
    <vehicle id="emergency145" type="emergency_emergency" depart="1450.00">
        <route edges="A10A11 A11B11 B11C11 C11D11 D11E11 E11F11 F11G11 G11H11 H11I11 I11J11 J11K11 K11L11 L11L10 L10L9 L9L8 L8L7 L7L6 L6L5 L5L4 L4L3 L3L2 L2L1 L1L2"/>
    </vehicle>
    <vehicle id="emergency146" type="emergency_emergency" depart="1460.00">
        <route edges="J2J3 J3J4 J4J5 J5J6 J6J7 J7J8 J8J9 J9J10 J10I10 I10H10 H10G10 G10F10 F10E10 E10D10"/>
    </vehicle>
    <vehicle id="emergency147" type="emergency_emergency" depart="1470.00">
        <route edges="K9L9 L9K9 K9J9 J9I9 I9I10 I10I11 I11I12 I12J12"/>
    </vehicle>
    <vehicle id="emergency148" type="emergency_emergency" depart="1480.00">
        <route edges="G2F2 F2E2 E2D2 D2C2 C2B2 B2A2 A2A3 A3A4 A4A5 A5A6 A6A7 A7A8 A8A9 A9A10 A10A11 A11A12 A12A11"/>
    </vehicle>
    <vehicle id="emergency149" type="emergency_emergency" depart="1490.00">
        <route edges="B14B13 B13B12 B12B11 B11B10 B10B9 B9B8 B8B7 B7B6 B6B5 B5B4 B4B3 B3B2 B2B1 B1B0 B0C0 C0D0 D0E0 E0F0 F0G0 G0H0 H0I0 I0J0 J0K0 K0L0 L0M0 M0N0 N0O0"/>
    </vehicle>
    <vehicle id="emergency150" type="emergency_emergency" depart="1500.00">
        <route edges="N14N13 N13N12 N12N11 N11M11 M11L11 L11K11 K11J11 J11I11 I11I12"/>
    </vehicle>
    <vehicle id="emergency151" type="emergency_emergency" depart="1510.00">
        <route edges="M14M13 M13M12 M12M11 M11M10 M10M9 M9M8 M8M7 M7M6 M6M5 M5L5 L5K5 K5J5 J5I5 I5I6"/>
    </vehicle>
    <vehicle id="emergency152" type="emergency_emergency" depart="1520.00">
        <route edges="C1C0 C0C1 C1C2 C2C3 C3C4 C4C5 C5C6 C6C7 C7C8 C8C9 C9C10 C10D10"/>
    </vehicle>
    <vehicle id="emergency153" type="emergency_emergency" depart="1530.00">
        <route edges="E5F5 F5G5 G5H5 H5I5 I5J5 J5K5 K5L5 L5M5 M5M6 M6M7 M7M8 M8M9 M9M10 M10M11 M11M12 M12M13 M13N13 N13N12"/>
    </vehicle>
    <vehicle id="emergency154" type="emergency_emergency" depart="1540.00">
        <route edges="L6M6 M6M5 M5N5"/>
    </vehicle>
    <vehicle id="emergency155" type="emergency_emergency" depart="1550.00">
        <route edges="N13N12 N12M12 M12L12 L12K12 K12J12 J12I12 I12H12 H12G12 G12F12 F12E12 E12D12 D12D13 D13D14"/>
    </vehicle>
    <vehicle id="emergency156" type="emergency_emergency" depart="1560.00">
        <route edges="D8C8 C8B8 B8B7 B7B6 B6B5"/>
    </vehicle>
    <vehicle id="emergency157" type="emergency_emergency" depart="1570.00">
        <route edges="L3L4 L4L5 L5L6 L6L7 L7L8 L8L9 L9L10 L10M10 M10N10 N10M10"/>
    </vehicle>
    <vehicle id="emergency158" type="emergency_emergency" depart="1580.00">
        <route edges="G11G10 G10G11 G11G12 G12H12 H12I12 I12J12 J12K12"/>
    </vehicle>
    <vehicle id="emergency159" type="emergency_emergency" depart="1590.00">
        <route edges="C2C3 C3C4 C4C5 C5C6 C6D6 D6E6 E6F6 F6G6 G6H6 H6I6 I6J6 J6K6 K6L6 L6M6 M6N6 N6M6"/>
    </vehicle>
    <vehicle id="emergency160" type="emergency_emergency" depart="1600.00">
        <route edges="M6N6 N6O6 O6O5 O5O4 O4O3 O3O2"/>
    </vehicle>
    <vehicle id="emergency161" type="emergency_emergency" depart="1610.00">