<?xml version="1.0" encoding="UTF-8"?>

<!-- generated on 2024-02-26 21:13:57.904215 by generateParkingAreas.py UNKNOWN
<configuration>
    <net-file value="cenary.net.xml"/>
    <probability value="0.1"/>
    <space-length value="10.0"/>
</configuration>
-->

<additional xmlns:xsi="http://www.w3.org/2001/XMLSchema-instance" xsi:noNamespaceSchemaLocation="http://sumo.dlr.de/xsd/additional_file.xsd">
    <parkingArea id="paA0B0" lane="A0B0_0" roadsideCapacity="5" length="5.0"/>
    <parkingArea id="paA2B2" lane="A2B2_0" roadsideCapacity="22" length="5.0"/>
    <parkingArea id="paA3B3" lane="A3B3_0" roadsideCapacity="5" length="5.0"/>
    <parkingArea id="paB0C0" lane="B0C0_0" roadsideCapacity="22" length="5.0"/>
    <parkingArea id="paB2B3" lane="B2B3_0" roadsideCapacity="22" length="5.0"/>
    <parkingArea id="paC0D0" lane="C0D0_0" roadsideCapacity="5" length="5.0"/>
    <parkingArea id="paC1B1" lane="C1B1_0" roadsideCapacity="22" length="5.0"/>
    <parkingArea id="paD1D0" lane="D1D0_0" roadsideCapacity="5" length="5.0"/>
    <parkingArea id="paD2D1" lane="D2D1_0" roadsideCapacity="22" length="5.0"/>
</additional>
