<?xml version="1.0" encoding="UTF-8"?>

<!-- generated on 2024-02-25 21:56:32.786460 by generateParkingAreas.py UNKNOWN
<configuration>
    <net-file value=".\cenary.net.xml"/>
</configuration>
-->

<additional xmlns:xsi="http://www.w3.org/2001/XMLSchema-instance" xsi:noNamespaceSchemaLocation="http://sumo.dlr.de/xsd/additional_file.xsd">
    <parkingArea id="paA0A1" lane="A0A1_0" roadsideCapacity="64" length="5"/>
    <parkingArea id="paA0B0" lane="A0B0_0" roadsideCapacity="64" length="5"/>
    <parkingArea id="paA10A11" lane="A10A11_0" roadsideCapacity="64" length="5"/>
    <parkingArea id="paA10A9" lane="A10A9_0" roadsideCapacity="64" length="5"/>
    <parkingArea id="paA10B10" lane="A10B10_0" roadsideCapacity="64" length="5"/>
    <parkingArea id="paA11A10" lane="A11A10_0" roadsideCapacity="64" length="5"/>
    <parkingArea id="paA11A12" lane="A11A12_0" roadsideCapacity="64" length="5"/>
    <parkingArea id="paA11B11" lane="A11B11_0" roadsideCapacity="64" length="5"/>
    <parkingArea id="paA12A11" lane="A12A11_0" roadsideCapacity="64" length="5"/>
    <parkingArea id="paA12A13" lane="A12A13_0" roadsideCapacity="64" length="5"/>
    <parkingArea id="paA12B12" lane="A12B12_0" roadsideCapacity="64" length="5"/>
    <parkingArea id="paA13A12" lane="A13A12_0" roadsideCapacity="64" length="5"/>
    <parkingArea id="paA13A14" lane="A13A14_0" roadsideCapacity="64" length="5"/>
    <parkingArea id="paA13B13" lane="A13B13_0" roadsideCapacity="64" length="5"/>
    <parkingArea id="paA14A13" lane="A14A13_0" roadsideCapacity="64" length="5"/>
    <parkingArea id="paA14B14" lane="A14B14_0" roadsideCapacity="64" length="5"/>
    <parkingArea id="paA1A0" lane="A1A0_0" roadsideCapacity="64" length="5"/>
    <parkingArea id="paA1A2" lane="A1A2_0" roadsideCapacity="64" length="5"/>
    <parkingArea id="paA1B1" lane="A1B1_0" roadsideCapacity="64" length="5"/>
    <parkingArea id="paA2A1" lane="A2A1_0" roadsideCapacity="64" length="5"/>
    <parkingArea id="paA2A3" lane="A2A3_0" roadsideCapacity="64" length="5"/>
    <parkingArea id="paA2B2" lane="A2B2_0" roadsideCapacity="64" length="5"/>
    <parkingArea id="paA3A2" lane="A3A2_0" roadsideCapacity="64" length="5"/>
    <parkingArea id="paA3A4" lane="A3A4_0" roadsideCapacity="64" length="5"/>
    <parkingArea id="paA3B3" lane="A3B3_0" roadsideCapacity="64" length="5"/>
    <parkingArea id="paA4A3" lane="A4A3_0" roadsideCapacity="64" length="5"/>
    <parkingArea id="paA4A5" lane="A4A5_0" roadsideCapacity="64" length="5"/>
    <parkingArea id="paA4B4" lane="A4B4_0" roadsideCapacity="64" length="5"/>
    <parkingArea id="paA5A4" lane="A5A4_0" roadsideCapacity="64" length="5"/>
    <parkingArea id="paA5A6" lane="A5A6_0" roadsideCapacity="64" length="5"/>
    <parkingArea id="paA5B5" lane="A5B5_0" roadsideCapacity="64" length="5"/>
    <parkingArea id="paA6A5" lane="A6A5_0" roadsideCapacity="64" length="5"/>
    <parkingArea id="paA6A7" lane="A6A7_0" roadsideCapacity="64" length="5"/>
    <parkingArea id="paA6B6" lane="A6B6_0" roadsideCapacity="64" length="5"/>
    <parkingArea id="paA7A6" lane="A7A6_0" roadsideCapacity="64" length="5"/>
    <parkingArea id="paA7A8" lane="A7A8_0" roadsideCapacity="64" length="5"/>
    <parkingArea id="paA7B7" lane="A7B7_0" roadsideCapacity="64" length="5"/>
    <parkingArea id="paA8A7" lane="A8A7_0" roadsideCapacity="64" length="5"/>
    <parkingArea id="paA8A9" lane="A8A9_0" roadsideCapacity="64" length="5"/>
    <parkingArea id="paA8B8" lane="A8B8_0" roadsideCapacity="64" length="5"/>
    <parkingArea id="paA9A10" lane="A9A10_0" roadsideCapacity="64" length="5"/>
    <parkingArea id="paA9A8" lane="A9A8_0" roadsideCapacity="64" length="5"/>
    <parkingArea id="paA9B9" lane="A9B9_0" roadsideCapacity="64" length="5"/>
    <parkingArea id="paB0A0" lane="B0A0_0" roadsideCapacity="64" length="5"/>
    <parkingArea id="paB0B1" lane="B0B1_0" roadsideCapacity="64" length="5"/>
    <parkingArea id="paB0C0" lane="B0C0_0" roadsideCapacity="64" length="5"/>
    <parkingArea id="paB10A10" lane="B10A10_0" roadsideCapacity="64" length="5"/>
    <parkingArea id="paB10B11" lane="B10B11_0" roadsideCapacity="64" length="5"/>
    <parkingArea id="paB10B9" lane="B10B9_0" roadsideCapacity="64" length="5"/>
    <parkingArea id="paB10C10" lane="B10C10_0" roadsideCapacity="64" length="5"/>
    <parkingArea id="paB11A11" lane="B11A11_0" roadsideCapacity="64" length="5"/>
    <parkingArea id="paB11B10" lane="B11B10_0" roadsideCapacity="64" length="5"/>
    <parkingArea id="paB11B12" lane="B11B12_0" roadsideCapacity="64" length="5"/>
    <parkingArea id="paB11C11" lane="B11C11_0" roadsideCapacity="64" length="5"/>
    <parkingArea id="paB12A12" lane="B12A12_0" roadsideCapacity="64" length="5"/>
    <parkingArea id="paB12B11" lane="B12B11_0" roadsideCapacity="64" length="5"/>
    <parkingArea id="paB12B13" lane="B12B13_0" roadsideCapacity="64" length="5"/>
    <parkingArea id="paB12C12" lane="B12C12_0" roadsideCapacity="64" length="5"/>
    <parkingArea id="paB13A13" lane="B13A13_0" roadsideCapacity="64" length="5"/>
    <parkingArea id="paB13B12" lane="B13B12_0" roadsideCapacity="64" length="5"/>
    <parkingArea id="paB13B14" lane="B13B14_0" roadsideCapacity="64" length="5"/>
    <parkingArea id="paB13C13" lane="B13C13_0" roadsideCapacity="64" length="5"/>
    <parkingArea id="paB14A14" lane="B14A14_0" roadsideCapacity="64" length="5"/>
    <parkingArea id="paB14B13" lane="B14B13_0" roadsideCapacity="64" length="5"/>
    <parkingArea id="paB14C14" lane="B14C14_0" roadsideCapacity="64" length="5"/>
    <parkingArea id="paB1A1" lane="B1A1_0" roadsideCapacity="64" length="5"/>
    <parkingArea id="paB1B0" lane="B1B0_0" roadsideCapacity="64" length="5"/>
    <parkingArea id="paB1B2" lane="B1B2_0" roadsideCapacity="64" length="5"/>
    <parkingArea id="paB1C1" lane="B1C1_0" roadsideCapacity="64" length="5"/>
    <parkingArea id="paB2A2" lane="B2A2_0" roadsideCapacity="64" length="5"/>
    <parkingArea id="paB2B1" lane="B2B1_0" roadsideCapacity="64" length="5"/>
    <parkingArea id="paB2B3" lane="B2B3_0" roadsideCapacity="64" length="5"/>
    <parkingArea id="paB2C2" lane="B2C2_0" roadsideCapacity="64" length="5"/>
    <parkingArea id="paB3A3" lane="B3A3_0" roadsideCapacity="64" length="5"/>
    <parkingArea id="paB3B2" lane="B3B2_0" roadsideCapacity="64" length="5"/>
    <parkingArea id="paB3B4" lane="B3B4_0" roadsideCapacity="64" length="5"/>
    <parkingArea id="paB3C3" lane="B3C3_0" roadsideCapacity="64" length="5"/>
    <parkingArea id="paB4A4" lane="B4A4_0" roadsideCapacity="64" length="5"/>
    <parkingArea id="paB4B3" lane="B4B3_0" roadsideCapacity="64" length="5"/>
    <parkingArea id="paB4B5" lane="B4B5_0" roadsideCapacity="64" length="5"/>
    <parkingArea id="paB4C4" lane="B4C4_0" roadsideCapacity="64" length="5"/>
    <parkingArea id="paB5A5" lane="B5A5_0" roadsideCapacity="64" length="5"/>
    <parkingArea id="paB5B4" lane="B5B4_0" roadsideCapacity="64" length="5"/>
    <parkingArea id="paB5B6" lane="B5B6_0" roadsideCapacity="64" length="5"/>
    <parkingArea id="paB5C5" lane="B5C5_0" roadsideCapacity="64" length="5"/>
    <parkingArea id="paB6A6" lane="B6A6_0" roadsideCapacity="64" length="5"/>
    <parkingArea id="paB6B5" lane="B6B5_0" roadsideCapacity="64" length="5"/>
    <parkingArea id="paB6B7" lane="B6B7_0" roadsideCapacity="64" length="5"/>
    <parkingArea id="paB6C6" lane="B6C6_0" roadsideCapacity="64" length="5"/>
    <parkingArea id="paB7A7" lane="B7A7_0" roadsideCapacity="64" length="5"/>
    <parkingArea id="paB7B6" lane="B7B6_0" roadsideCapacity="64" length="5"/>
    <parkingArea id="paB7B8" lane="B7B8_0" roadsideCapacity="64" length="5"/>
    <parkingArea id="paB7C7" lane="B7C7_0" roadsideCapacity="64" length="5"/>
    <parkingArea id="paB8A8" lane="B8A8_0" roadsideCapacity="64" length="5"/>
    <parkingArea id="paB8B7" lane="B8B7_0" roadsideCapacity="64" length="5"/>
    <parkingArea id="paB8B9" lane="B8B9_0" roadsideCapacity="64" length="5"/>
    <parkingArea id="paB8C8" lane="B8C8_0" roadsideCapacity="64" length="5"/>
    <parkingArea id="paB9A9" lane="B9A9_0" roadsideCapacity="64" length="5"/>
    <parkingArea id="paB9B10" lane="B9B10_0" roadsideCapacity="64" length="5"/>
    <parkingArea id="paB9B8" lane="B9B8_0" roadsideCapacity="64" length="5"/>
    <parkingArea id="paB9C9" lane="B9C9_0" roadsideCapacity="64" length="5"/>
    <parkingArea id="paC0B0" lane="C0B0_0" roadsideCapacity="64" length="5"/>
    <parkingArea id="paC0C1" lane="C0C1_0" roadsideCapacity="64" length="5"/>
    <parkingArea id="paC0D0" lane="C0D0_0" roadsideCapacity="64" length="5"/>
    <parkingArea id="paC10B10" lane="C10B10_0" roadsideCapacity="64" length="5"/>
    <parkingArea id="paC10C11" lane="C10C11_0" roadsideCapacity="64" length="5"/>
    <parkingArea id="paC10C9" lane="C10C9_0" roadsideCapacity="64" length="5"/>
    <parkingArea id="paC10D10" lane="C10D10_0" roadsideCapacity="64" length="5"/>
    <parkingArea id="paC11B11" lane="C11B11_0" roadsideCapacity="64" length="5"/>
    <parkingArea id="paC11C10" lane="C11C10_0" roadsideCapacity="64" length="5"/>
    <parkingArea id="paC11C12" lane="C11C12_0" roadsideCapacity="64" length="5"/>
    <parkingArea id="paC11D11" lane="C11D11_0" roadsideCapacity="64" length="5"/>
    <parkingArea id="paC12B12" lane="C12B12_0" roadsideCapacity="64" length="5"/>
    <parkingArea id="paC12C11" lane="C12C11_0" roadsideCapacity="64" length="5"/>
    <parkingArea id="paC12C13" lane="C12C13_0" roadsideCapacity="64" length="5"/>
    <parkingArea id="paC12D12" lane="C12D12_0" roadsideCapacity="64" length="5"/>
    <parkingArea id="paC13B13" lane="C13B13_0" roadsideCapacity="64" length="5"/>
    <parkingArea id="paC13C12" lane="C13C12_0" roadsideCapacity="64" length="5"/>
    <parkingArea id="paC13C14" lane="C13C14_0" roadsideCapacity="64" length="5"/>
    <parkingArea id="paC13D13" lane="C13D13_0" roadsideCapacity="64" length="5"/>
    <parkingArea id="paC14B14" lane="C14B14_0" roadsideCapacity="64" length="5"/>
    <parkingArea id="paC14C13" lane="C14C13_0" roadsideCapacity="64" length="5"/>
    <parkingArea id="paC14D14" lane="C14D14_0" roadsideCapacity="64" length="5"/>
    <parkingArea id="paC1B1" lane="C1B1_0" roadsideCapacity="64" length="5"/>
    <parkingArea id="paC1C0" lane="C1C0_0" roadsideCapacity="64" length="5"/>
    <parkingArea id="paC1C2" lane="C1C2_0" roadsideCapacity="64" length="5"/>
    <parkingArea id="paC1D1" lane="C1D1_0" roadsideCapacity="64" length="5"/>
    <parkingArea id="paC2B2" lane="C2B2_0" roadsideCapacity="64" length="5"/>
    <parkingArea id="paC2C1" lane="C2C1_0" roadsideCapacity="64" length="5"/>
    <parkingArea id="paC2C3" lane="C2C3_0" roadsideCapacity="64" length="5"/>
    <parkingArea id="paC2D2" lane="C2D2_0" roadsideCapacity="64" length="5"/>
    <parkingArea id="paC3B3" lane="C3B3_0" roadsideCapacity="64" length="5"/>
    <parkingArea id="paC3C2" lane="C3C2_0" roadsideCapacity="64" length="5"/>
    <parkingArea id="paC3C4" lane="C3C4_0" roadsideCapacity="64" length="5"/>
    <parkingArea id="paC3D3" lane="C3D3_0" roadsideCapacity="64" length="5"/>
    <parkingArea id="paC4B4" lane="C4B4_0" roadsideCapacity="64" length="5"/>
    <parkingArea id="paC4C3" lane="C4C3_0" roadsideCapacity="64" length="5"/>
    <parkingArea id="paC4C5" lane="C4C5_0" roadsideCapacity="64" length="5"/>
    <parkingArea id="paC4D4" lane="C4D4_0" roadsideCapacity="64" length="5"/>
    <parkingArea id="paC5B5" lane="C5B5_0" roadsideCapacity="64" length="5"/>
    <parkingArea id="paC5C4" lane="C5C4_0" roadsideCapacity="64" length="5"/>
    <parkingArea id="paC5C6" lane="C5C6_0" roadsideCapacity="64" length="5"/>
    <parkingArea id="paC5D5" lane="C5D5_0" roadsideCapacity="64" length="5"/>
    <parkingArea id="paC6B6" lane="C6B6_0" roadsideCapacity="64" length="5"/>
    <parkingArea id="paC6C5" lane="C6C5_0" roadsideCapacity="64" length="5"/>
    <parkingArea id="paC6C7" lane="C6C7_0" roadsideCapacity="64" length="5"/>
    <parkingArea id="paC6D6" lane="C6D6_0" roadsideCapacity="64" length="5"/>
    <parkingArea id="paC7B7" lane="C7B7_0" roadsideCapacity="64" length="5"/>
    <parkingArea id="paC7C6" lane="C7C6_0" roadsideCapacity="64" length="5"/>
    <parkingArea id="paC7C8" lane="C7C8_0" roadsideCapacity="64" length="5"/>
    <parkingArea id="paC7D7" lane="C7D7_0" roadsideCapacity="64" length="5"/>
    <parkingArea id="paC8B8" lane="C8B8_0" roadsideCapacity="64" length="5"/>
    <parkingArea id="paC8C7" lane="C8C7_0" roadsideCapacity="64" length="5"/>
    <parkingArea id="paC8C9" lane="C8C9_0" roadsideCapacity="64" length="5"/>
    <parkingArea id="paC8D8" lane="C8D8_0" roadsideCapacity="64" length="5"/>
    <parkingArea id="paC9B9" lane="C9B9_0" roadsideCapacity="64" length="5"/>
    <parkingArea id="paC9C10" lane="C9C10_0" roadsideCapacity="64" length="5"/>
    <parkingArea id="paC9C8" lane="C9C8_0" roadsideCapacity="64" length="5"/>
    <parkingArea id="paC9D9" lane="C9D9_0" roadsideCapacity="64" length="5"/>
    <parkingArea id="paD0C0" lane="D0C0_0" roadsideCapacity="64" length="5"/>
    <parkingArea id="paD0D1" lane="D0D1_0" roadsideCapacity="64" length="5"/>
    <parkingArea id="paD0E0" lane="D0E0_0" roadsideCapacity="64" length="5"/>
    <parkingArea id="paD10C10" lane="D10C10_0" roadsideCapacity="64" length="5"/>
    <parkingArea id="paD10D11" lane="D10D11_0" roadsideCapacity="64" length="5"/>
    <parkingArea id="paD10D9" lane="D10D9_0" roadsideCapacity="64" length="5"/>
    <parkingArea id="paD10E10" lane="D10E10_0" roadsideCapacity="64" length="5"/>
    <parkingArea id="paD11C11" lane="D11C11_0" roadsideCapacity="64" length="5"/>
    <parkingArea id="paD11D10" lane="D11D10_0" roadsideCapacity="64" length="5"/>
    <parkingArea id="paD11D12" lane="D11D12_0" roadsideCapacity="64" length="5"/>
    <parkingArea id="paD11E11" lane="D11E11_0" roadsideCapacity="64" length="5"/>
    <parkingArea id="paD12C12" lane="D12C12_0" roadsideCapacity="64" length="5"/>
    <parkingArea id="paD12D11" lane="D12D11_0" roadsideCapacity="64" length="5"/>
    <parkingArea id="paD12D13" lane="D12D13_0" roadsideCapacity="64" length="5"/>
    <parkingArea id="paD12E12" lane="D12E12_0" roadsideCapacity="64" length="5"/>
    <parkingArea id="paD13C13" lane="D13C13_0" roadsideCapacity="64" length="5"/>
    <parkingArea id="paD13D12" lane="D13D12_0" roadsideCapacity="64" length="5"/>
    <parkingArea id="paD13D14" lane="D13D14_0" roadsideCapacity="64" length="5"/>
    <parkingArea id="paD13E13" lane="D13E13_0" roadsideCapacity="64" length="5"/>
    <parkingArea id="paD14C14" lane="D14C14_0" roadsideCapacity="64" length="5"/>
    <parkingArea id="paD14D13" lane="D14D13_0" roadsideCapacity="64" length="5"/>
    <parkingArea id="paD14E14" lane="D14E14_0" roadsideCapacity="64" length="5"/>
    <parkingArea id="paD1C1" lane="D1C1_0" roadsideCapacity="64" length="5"/>
    <parkingArea id="paD1D0" lane="D1D0_0" roadsideCapacity="64" length="5"/>
    <parkingArea id="paD1D2" lane="D1D2_0" roadsideCapacity="64" length="5"/>
    <parkingArea id="paD1E1" lane="D1E1_0" roadsideCapacity="64" length="5"/>
    <parkingArea id="paD2C2" lane="D2C2_0" roadsideCapacity="64" length="5"/>
    <parkingArea id="paD2D1" lane="D2D1_0" roadsideCapacity="64" length="5"/>
    <parkingArea id="paD2D3" lane="D2D3_0" roadsideCapacity="64" length="5"/>
    <parkingArea id="paD2E2" lane="D2E2_0" roadsideCapacity="64" length="5"/>
    <parkingArea id="paD3C3" lane="D3C3_0" roadsideCapacity="64" length="5"/>
    <parkingArea id="paD3D2" lane="D3D2_0" roadsideCapacity="64" length="5"/>
    <parkingArea id="paD3D4" lane="D3D4_0" roadsideCapacity="64" length="5"/>
    <parkingArea id="paD3E3" lane="D3E3_0" roadsideCapacity="64" length="5"/>
    <parkingArea id="paD4C4" lane="D4C4_0" roadsideCapacity="64" length="5"/>
    <parkingArea id="paD4D3" lane="D4D3_0" roadsideCapacity="64" length="5"/>
    <parkingArea id="paD4D5" lane="D4D5_0" roadsideCapacity="64" length="5"/>
    <parkingArea id="paD4E4" lane="D4E4_0" roadsideCapacity="64" length="5"/>
    <parkingArea id="paD5C5" lane="D5C5_0" roadsideCapacity="64" length="5"/>
    <parkingArea id="paD5D4" lane="D5D4_0" roadsideCapacity="64" length="5"/>
    <parkingArea id="paD5D6" lane="D5D6_0" roadsideCapacity="64" length="5"/>
    <parkingArea id="paD5E5" lane="D5E5_0" roadsideCapacity="64" length="5"/>
    <parkingArea id="paD6C6" lane="D6C6_0" roadsideCapacity="64" length="5"/>
    <parkingArea id="paD6D5" lane="D6D5_0" roadsideCapacity="64" length="5"/>
    <parkingArea id="paD6D7" lane="D6D7_0" roadsideCapacity="64" length="5"/>
    <parkingArea id="paD6E6" lane="D6E6_0" roadsideCapacity="64" length="5"/>
    <parkingArea id="paD7C7" lane="D7C7_0" roadsideCapacity="64" length="5"/>
    <parkingArea id="paD7D6" lane="D7D6_0" roadsideCapacity="64" length="5"/>
    <parkingArea id="paD7D8" lane="D7D8_0" roadsideCapacity="64" length="5"/>
    <parkingArea id="paD7E7" lane="D7E7_0" roadsideCapacity="64" length="5"/>
    <parkingArea id="paD8C8" lane="D8C8_0" roadsideCapacity="64" length="5"/>
    <parkingArea id="paD8D7" lane="D8D7_0" roadsideCapacity="64" length="5"/>
    <parkingArea id="paD8D9" lane="D8D9_0" roadsideCapacity="64" length="5"/>
    <parkingArea id="paD8E8" lane="D8E8_0" roadsideCapacity="64" length="5"/>
    <parkingArea id="paD9C9" lane="D9C9_0" roadsideCapacity="64" length="5"/>
    <parkingArea id="paD9D10" lane="D9D10_0" roadsideCapacity="64" length="5"/>
    <parkingArea id="paD9D8" lane="D9D8_0" roadsideCapacity="64" length="5"/>
    <parkingArea id="paD9E9" lane="D9E9_0" roadsideCapacity="64" length="5"/>
    <parkingArea id="paE0D0" lane="E0D0_0" roadsideCapacity="64" length="5"/>
    <parkingArea id="paE0E1" lane="E0E1_0" roadsideCapacity="64" length="5"/>
    <parkingArea id="paE0F0" lane="E0F0_0" roadsideCapacity="64" length="5"/>
    <parkingArea id="paE10D10" lane="E10D10_0" roadsideCapacity="64" length="5"/>
    <parkingArea id="paE10E11" lane="E10E11_0" roadsideCapacity="64" length="5"/>
    <parkingArea id="paE10E9" lane="E10E9_0" roadsideCapacity="64" length="5"/>
    <parkingArea id="paE10F10" lane="E10F10_0" roadsideCapacity="64" length="5"/>
    <parkingArea id="paE11D11" lane="E11D11_0" roadsideCapacity="64" length="5"/>
    <parkingArea id="paE11E10" lane="E11E10_0" roadsideCapacity="64" length="5"/>
    <parkingArea id="paE11E12" lane="E11E12_0" roadsideCapacity="64" length="5"/>
    <parkingArea id="paE11F11" lane="E11F11_0" roadsideCapacity="64" length="5"/>
    <parkingArea id="paE12D12" lane="E12D12_0" roadsideCapacity="64" length="5"/>
    <parkingArea id="paE12E11" lane="E12E11_0" roadsideCapacity="64" length="5"/>
    <parkingArea id="paE12E13" lane="E12E13_0" roadsideCapacity="64" length="5"/>
    <parkingArea id="paE12F12" lane="E12F12_0" roadsideCapacity="64" length="5"/>
    <parkingArea id="paE13D13" lane="E13D13_0" roadsideCapacity="64" length="5"/>
    <parkingArea id="paE13E12" lane="E13E12_0" roadsideCapacity="64" length="5"/>
    <parkingArea id="paE13E14" lane="E13E14_0" roadsideCapacity="64" length="5"/>
    <parkingArea id="paE13F13" lane="E13F13_0" roadsideCapacity="64" length="5"/>
    <parkingArea id="paE14D14" lane="E14D14_0" roadsideCapacity="64" length="5"/>
    <parkingArea id="paE14E13" lane="E14E13_0" roadsideCapacity="64" length="5"/>
    <parkingArea id="paE14F14" lane="E14F14_0" roadsideCapacity="64" length="5"/>
    <parkingArea id="paE1D1" lane="E1D1_0" roadsideCapacity="64" length="5"/>
    <parkingArea id="paE1E0" lane="E1E0_0" roadsideCapacity="64" length="5"/>
    <parkingArea id="paE1E2" lane="E1E2_0" roadsideCapacity="64" length="5"/>
    <parkingArea id="paE1F1" lane="E1F1_0" roadsideCapacity="64" length="5"/>
    <parkingArea id="paE2D2" lane="E2D2_0" roadsideCapacity="64" length="5"/>
    <parkingArea id="paE2E1" lane="E2E1_0" roadsideCapacity="64" length="5"/>
    <parkingArea id="paE2E3" lane="E2E3_0" roadsideCapacity="64" length="5"/>
    <parkingArea id="paE2F2" lane="E2F2_0" roadsideCapacity="64" length="5"/>
    <parkingArea id="paE3D3" lane="E3D3_0" roadsideCapacity="64" length="5"/>
    <parkingArea id="paE3E2" lane="E3E2_0" roadsideCapacity="64" length="5"/>
    <parkingArea id="paE3E4" lane="E3E4_0" roadsideCapacity="64" length="5"/>
    <parkingArea id="paE3F3" lane="E3F3_0" roadsideCapacity="64" length="5"/>
    <parkingArea id="paE4D4" lane="E4D4_0" roadsideCapacity="64" length="5"/>
    <parkingArea id="paE4E3" lane="E4E3_0" roadsideCapacity="64" length="5"/>
    <parkingArea id="paE4E5" lane="E4E5_0" roadsideCapacity="64" length="5"/>
    <parkingArea id="paE4F4" lane="E4F4_0" roadsideCapacity="64" length="5"/>
    <parkingArea id="paE5D5" lane="E5D5_0" roadsideCapacity="64" length="5"/>
    <parkingArea id="paE5E4" lane="E5E4_0" roadsideCapacity="64" length="5"/>
    <parkingArea id="paE5E6" lane="E5E6_0" roadsideCapacity="64" length="5"/>
    <parkingArea id="paE5F5" lane="E5F5_0" roadsideCapacity="64" length="5"/>
    <parkingArea id="paE6D6" lane="E6D6_0" roadsideCapacity="64" length="5"/>
    <parkingArea id="paE6E5" lane="E6E5_0" roadsideCapacity="64" length="5"/>
    <parkingArea id="paE6E7" lane="E6E7_0" roadsideCapacity="64" length="5"/>
    <parkingArea id="paE6F6" lane="E6F6_0" roadsideCapacity="64" length="5"/>
    <parkingArea id="paE7D7" lane="E7D7_0" roadsideCapacity="64" length="5"/>
    <parkingArea id="paE7E6" lane="E7E6_0" roadsideCapacity="64" length="5"/>
    <parkingArea id="paE7E8" lane="E7E8_0" roadsideCapacity="64" length="5"/>
    <parkingArea id="paE7F7" lane="E7F7_0" roadsideCapacity="64" length="5"/>
    <parkingArea id="paE8D8" lane="E8D8_0" roadsideCapacity="64" length="5"/>
    <parkingArea id="paE8E7" lane="E8E7_0" roadsideCapacity="64" length="5"/>
    <parkingArea id="paE8E9" lane="E8E9_0" roadsideCapacity="64" length="5"/>
    <parkingArea id="paE8F8" lane="E8F8_0" roadsideCapacity="64" length="5"/>
    <parkingArea id="paE9D9" lane="E9D9_0" roadsideCapacity="64" length="5"/>
    <parkingArea id="paE9E10" lane="E9E10_0" roadsideCapacity="64" length="5"/>
    <parkingArea id="paE9E8" lane="E9E8_0" roadsideCapacity="64" length="5"/>
    <parkingArea id="paE9F9" lane="E9F9_0" roadsideCapacity="64" length="5"/>
    <parkingArea id="paF0E0" lane="F0E0_0" roadsideCapacity="64" length="5"/>
    <parkingArea id="paF0F1" lane="F0F1_0" roadsideCapacity="64" length="5"/>
    <parkingArea id="paF0G0" lane="F0G0_0" roadsideCapacity="64" length="5"/>
    <parkingArea id="paF10E10" lane="F10E10_0" roadsideCapacity="64" length="5"/>
    <parkingArea id="paF10F11" lane="F10F11_0" roadsideCapacity="64" length="5"/>
    <parkingArea id="paF10F9" lane="F10F9_0" roadsideCapacity="64" length="5"/>
    <parkingArea id="paF10G10" lane="F10G10_0" roadsideCapacity="64" length="5"/>
    <parkingArea id="paF11E11" lane="F11E11_0" roadsideCapacity="64" length="5"/>
    <parkingArea id="paF11F10" lane="F11F10_0" roadsideCapacity="64" length="5"/>
    <parkingArea id="paF11F12" lane="F11F12_0" roadsideCapacity="64" length="5"/>
    <parkingArea id="paF11G11" lane="F11G11_0" roadsideCapacity="64" length="5"/>
    <parkingArea id="paF12E12" lane="F12E12_0" roadsideCapacity="64" length="5"/>
    <parkingArea id="paF12F11" lane="F12F11_0" roadsideCapacity="64" length="5"/>
    <parkingArea id="paF12F13" lane="F12F13_0" roadsideCapacity="64" length="5"/>
    <parkingArea id="paF12G12" lane="F12G12_0" roadsideCapacity="64" length="5"/>
    <parkingArea id="paF13E13" lane="F13E13_0" roadsideCapacity="64" length="5"/>
    <parkingArea id="paF13F12" lane="F13F12_0" roadsideCapacity="64" length="5"/>
    <parkingArea id="paF13F14" lane="F13F14_0" roadsideCapacity="64" length="5"/>
    <parkingArea id="paF13G13" lane="F13G13_0" roadsideCapacity="64" length="5"/>
    <parkingArea id="paF14E14" lane="F14E14_0" roadsideCapacity="64" length="5"/>
    <parkingArea id="paF14F13" lane="F14F13_0" roadsideCapacity="64" length="5"/>
    <parkingArea id="paF14G14" lane="F14G14_0" roadsideCapacity="64" length="5"/>
    <parkingArea id="paF1E1" lane="F1E1_0" roadsideCapacity="64" length="5"/>
    <parkingArea id="paF1F0" lane="F1F0_0" roadsideCapacity="64" length="5"/>
    <parkingArea id="paF1F2" lane="F1F2_0" roadsideCapacity="64" length="5"/>
    <parkingArea id="paF1G1" lane="F1G1_0" roadsideCapacity="64" length="5"/>
    <parkingArea id="paF2E2" lane="F2E2_0" roadsideCapacity="64" length="5"/>
    <parkingArea id="paF2F1" lane="F2F1_0" roadsideCapacity="64" length="5"/>
    <parkingArea id="paF2F3" lane="F2F3_0" roadsideCapacity="64" length="5"/>
    <parkingArea id="paF2G2" lane="F2G2_0" roadsideCapacity="64" length="5"/>
    <parkingArea id="paF3E3" lane="F3E3_0" roadsideCapacity="64" length="5"/>
    <parkingArea id="paF3F2" lane="F3F2_0" roadsideCapacity="64" length="5"/>
    <parkingArea id="paF3F4" lane="F3F4_0" roadsideCapacity="64" length="5"/>
    <parkingArea id="paF3G3" lane="F3G3_0" roadsideCapacity="64" length="5"/>
    <parkingArea id="paF4E4" lane="F4E4_0" roadsideCapacity="64" length="5"/>
    <parkingArea id="paF4F3" lane="F4F3_0" roadsideCapacity="64" length="5"/>
    <parkingArea id="paF4F5" lane="F4F5_0" roadsideCapacity="64" length="5"/>
    <parkingArea id="paF4G4" lane="F4G4_0" roadsideCapacity="64" length="5"/>
    <parkingArea id="paF5E5" lane="F5E5_0" roadsideCapacity="64" length="5"/>
    <parkingArea id="paF5F4" lane="F5F4_0" roadsideCapacity="64" length="5"/>
    <parkingArea id="paF5F6" lane="F5F6_0" roadsideCapacity="64" length="5"/>
    <parkingArea id="paF5G5" lane="F5G5_0" roadsideCapacity="64" length="5"/>
    <parkingArea id="paF6E6" lane="F6E6_0" roadsideCapacity="64" length="5"/>
    <parkingArea id="paF6F5" lane="F6F5_0" roadsideCapacity="64" length="5"/>
    <parkingArea id="paF6F7" lane="F6F7_0" roadsideCapacity="64" length="5"/>
    <parkingArea id="paF6G6" lane="F6G6_0" roadsideCapacity="64" length="5"/>
    <parkingArea id="paF7E7" lane="F7E7_0" roadsideCapacity="64" length="5"/>
    <parkingArea id="paF7F6" lane="F7F6_0" roadsideCapacity="64" length="5"/>
    <parkingArea id="paF7F8" lane="F7F8_0" roadsideCapacity="64" length="5"/>
    <parkingArea id="paF7G7" lane="F7G7_0" roadsideCapacity="64" length="5"/>
    <parkingArea id="paF8E8" lane="F8E8_0" roadsideCapacity="64" length="5"/>
    <parkingArea id="paF8F7" lane="F8F7_0" roadsideCapacity="64" length="5"/>
    <parkingArea id="paF8F9" lane="F8F9_0" roadsideCapacity="64" length="5"/>
    <parkingArea id="paF8G8" lane="F8G8_0" roadsideCapacity="64" length="5"/>
    <parkingArea id="paF9E9" lane="F9E9_0" roadsideCapacity="64" length="5"/>
    <parkingArea id="paF9F10" lane="F9F10_0" roadsideCapacity="64" length="5"/>
    <parkingArea id="paF9F8" lane="F9F8_0" roadsideCapacity="64" length="5"/>
    <parkingArea id="paF9G9" lane="F9G9_0" roadsideCapacity="64" length="5"/>
    <parkingArea id="paG0F0" lane="G0F0_0" roadsideCapacity="64" length="5"/>
    <parkingArea id="paG0G1" lane="G0G1_0" roadsideCapacity="64" length="5"/>
    <parkingArea id="paG0H0" lane="G0H0_0" roadsideCapacity="64" length="5"/>
    <parkingArea id="paG10F10" lane="G10F10_0" roadsideCapacity="64" length="5"/>
    <parkingArea id="paG10G11" lane="G10G11_0" roadsideCapacity="64" length="5"/>
    <parkingArea id="paG10G9" lane="G10G9_0" roadsideCapacity="64" length="5"/>
    <parkingArea id="paG10H10" lane="G10H10_0" roadsideCapacity="64" length="5"/>
    <parkingArea id="paG11F11" lane="G11F11_0" roadsideCapacity="64" length="5"/>
    <parkingArea id="paG11G10" lane="G11G10_0" roadsideCapacity="64" length="5"/>
    <parkingArea id="paG11G12" lane="G11G12_0" roadsideCapacity="64" length="5"/>
    <parkingArea id="paG11H11" lane="G11H11_0" roadsideCapacity="64" length="5"/>
    <parkingArea id="paG12F12" lane="G12F12_0" roadsideCapacity="64" length="5"/>
    <parkingArea id="paG12G11" lane="G12G11_0" roadsideCapacity="64" length="5"/>
    <parkingArea id="paG12G13" lane="G12G13_0" roadsideCapacity="64" length="5"/>
    <parkingArea id="paG12H12" lane="G12H12_0" roadsideCapacity="64" length="5"/>
    <parkingArea id="paG13F13" lane="G13F13_0" roadsideCapacity="64" length="5"/>
    <parkingArea id="paG13G12" lane="G13G12_0" roadsideCapacity="64" length="5"/>
    <parkingArea id="paG13G14" lane="G13G14_0" roadsideCapacity="64" length="5"/>
    <parkingArea id="paG13H13" lane="G13H13_0" roadsideCapacity="64" length="5"/>
    <parkingArea id="paG14F14" lane="G14F14_0" roadsideCapacity="64" length="5"/>
    <parkingArea id="paG14G13" lane="G14G13_0" roadsideCapacity="64" length="5"/>
    <parkingArea id="paG14H14" lane="G14H14_0" roadsideCapacity="64" length="5"/>
    <parkingArea id="paG1F1" lane="G1F1_0" roadsideCapacity="64" length="5"/>
    <parkingArea id="paG1G0" lane="G1G0_0" roadsideCapacity="64" length="5"/>
    <parkingArea id="paG1G2" lane="G1G2_0" roadsideCapacity="64" length="5"/>
    <parkingArea id="paG1H1" lane="G1H1_0" roadsideCapacity="64" length="5"/>
    <parkingArea id="paG2F2" lane="G2F2_0" roadsideCapacity="64" length="5"/>
    <parkingArea id="paG2G1" lane="G2G1_0" roadsideCapacity="64" length="5"/>
    <parkingArea id="paG2G3" lane="G2G3_0" roadsideCapacity="64" length="5"/>
    <parkingArea id="paG2H2" lane="G2H2_0" roadsideCapacity="64" length="5"/>
    <parkingArea id="paG3F3" lane="G3F3_0" roadsideCapacity="64" length="5"/>
    <parkingArea id="paG3G2" lane="G3G2_0" roadsideCapacity="64" length="5"/>
    <parkingArea id="paG3G4" lane="G3G4_0" roadsideCapacity="64" length="5"/>
    <parkingArea id="paG3H3" lane="G3H3_0" roadsideCapacity="64" length="5"/>
    <parkingArea id="paG4F4" lane="G4F4_0" roadsideCapacity="64" length="5"/>
    <parkingArea id="paG4G3" lane="G4G3_0" roadsideCapacity="64" length="5"/>
    <parkingArea id="paG4G5" lane="G4G5_0" roadsideCapacity="64" length="5"/>
    <parkingArea id="paG4H4" lane="G4H4_0" roadsideCapacity="64" length="5"/>
    <parkingArea id="paG5F5" lane="G5F5_0" roadsideCapacity="64" length="5"/>
    <parkingArea id="paG5G4" lane="G5G4_0" roadsideCapacity="64" length="5"/>