<?xml version="1.0" encoding="UTF-8"?>

<!-- generated on 2024-02-29 00:06:58 by Eclipse SUMO netgenerate Version 1.19.0
<configuration xmlns:xsi="http://www.w3.org/2001/XMLSchema-instance" xsi:noNamespaceSchemaLocation="http://sumo.dlr.de/xsd/netgenerateConfiguration.xsd">

    <random_network>
        <rand value="true"/>
        <rand.iterations value="70"/>
    </random_network>

    <output>
        <output-file value="Random.net.xml"/>
    </output>

    <building_defaults>
        <default-junction-type value="traffic_light"/>
    </building_defaults>

</configuration>
-->

<net version="1.16" junctionCornerDetail="5" limitTurnSpeed="5.50" xmlns:xsi="http://www.w3.org/2001/XMLSchema-instance" xsi:noNamespaceSchemaLocation="http://sumo.dlr.de/xsd/net_file.xsd">

    <location netOffset="882.72,864.89" convBoundary="0.00,0.00,1780.38,1764.25" origBoundary="-882.72,-864.89,897.66,899.36" projParameter="!"/>

    <edge id=":1_0" function="internal">
        <lane id=":1_0_0" index="0" speed="5.98" length="9.08" shape="881.25,873.19 880.84,870.62 879.71,869.04 877.86,868.46 875.29,868.87"/>
    </edge>
    <edge id=":1_1" function="internal">
        <lane id=":1_1_0" index="0" speed="13.89" length="14.86" shape="881.25,873.19 881.11,869.46 880.80,865.77 880.28,862.11 879.53,858.46"/>
    </edge>
    <edge id=":1_2" function="internal">
        <lane id=":1_2_0" index="0" speed="8.09" length="4.36" shape="881.25,873.19 881.75,868.85"/>
    </edge>
    <edge id=":1_3" function="internal">
        <lane id=":1_3_0" index="0" speed="3.65" length="1.44" shape="881.25,873.19 882.03,871.97"/>
    </edge>
    <edge id=":1_16" function="internal">
        <lane id=":1_16_0" index="0" speed="8.09" length="10.76" shape="881.75,868.85 883.39,865.80 886.20,864.04 890.15,863.57"/>
    </edge>
    <edge id=":1_17" function="internal">
        <lane id=":1_17_0" index="0" speed="3.65" length="3.23" shape="882.03,871.97 882.82,871.56 883.63,871.95 884.45,873.14"/>
    </edge>
    <edge id=":1_4" function="internal">
        <lane id=":1_4_0" index="0" speed="6.62" length="9.76" shape="890.03,866.77 887.55,867.08 885.79,868.25 884.76,870.27 884.45,873.14"/>
    </edge>
    <edge id=":1_5" function="internal">
        <lane id=":1_5_0" index="0" speed="13.89" length="14.95" shape="890.03,866.77 886.29,866.81 882.58,867.19 878.90,867.89 875.29,868.87"/>
    </edge>
    <edge id=":1_6" function="internal">
        <lane id=":1_6_0" index="0" speed="9.03" length="3.93" shape="890.03,866.77 886.15,866.13"/>
    </edge>
    <edge id=":1_7" function="internal">
        <lane id=":1_7_0" index="0" speed="3.65" length="1.44" shape="890.03,866.77 888.86,865.92"/>
    </edge>
    <edge id=":1_18" function="internal">
        <lane id=":1_18_0" index="0" speed="9.03" length="10.59" shape="886.15,866.13 883.11,864.53 880.90,861.97 879.53,858.46"/>
    </edge>
    <edge id=":1_19" function="internal">
        <lane id=":1_19_0" index="0" speed="3.65" length="3.23" shape="888.86,865.92 888.49,865.11 888.92,864.32 890.15,863.57"/>
    </edge>
    <edge id=":1_8" function="internal">
        <lane id=":1_8_0" index="0" speed="7.70" length="10.32" shape="882.64,857.71 883.61,860.19 885.19,861.99 887.37,863.12 890.15,863.57"/>
    </edge>
    <edge id=":1_9" function="internal">
        <lane id=":1_9_0" index="0" speed="13.89" length="15.56" shape="882.64,857.71 883.40,861.47 883.95,865.37 884.30,869.30 884.45,873.14"/>
    </edge>
    <edge id=":1_10" function="internal">
        <lane id=":1_10_0" index="0" speed="8.41" length="4.08" shape="882.64,857.71 882.92,861.51 882.83,861.77"/>
    </edge>
    <edge id=":1_11" function="internal">
        <lane id=":1_11_0" index="0" speed="3.65" length="1.44" shape="882.64,857.71 882.14,859.06"/>
    </edge>
    <edge id=":1_20" function="internal">
        <lane id=":1_20_0" index="0" speed="8.41" length="10.92" shape="882.83,861.77 881.79,864.63 879.25,867.09 875.29,868.87"/>
    </edge>
    <edge id=":1_21" function="internal">
        <lane id=":1_21_0" index="0" speed="3.65" length="3.23" shape="882.14,859.06 881.46,859.64 880.59,859.44 879.53,858.46"/>
    </edge>
    <edge id=":1_12" function="internal">
        <lane id=":1_12_0" index="0" speed="7.00" length="10.09" shape="874.34,865.81 877.09,864.60 878.87,862.97 879.68,860.92 879.53,858.46"/>
    </edge>
    <edge id=":1_13" function="internal">
        <lane id=":1_13_0" index="0" speed="13.89" length="16.03" shape="874.34,865.81 878.12,864.81 882.16,864.06 886.24,863.63 890.15,863.57"/>
    </edge>
    <edge id=":1_14" function="internal">
        <lane id=":1_14_0" index="0" speed="7.59" length="4.78" shape="874.34,865.81 878.70,865.11 879.05,865.22"/>
    </edge>
    <edge id=":1_15" function="internal">
        <lane id=":1_15_0" index="0" speed="3.65" length="1.44" shape="874.34,865.81 875.73,866.22"/>
    </edge>
    <edge id=":1_22" function="internal">
        <lane id=":1_22_0" index="0" speed="7.59" length="10.63" shape="879.05,865.22 881.84,866.10 883.75,868.77 884.45,873.14"/>
    </edge>
    <edge id=":1_23" function="internal">
        <lane id=":1_23_0" index="0" speed="3.65" length="3.23" shape="875.73,866.22 876.34,866.87 876.20,867.75 875.29,868.87"/>
    </edge>
    <edge id=":10_0" function="internal">
        <lane id=":10_0_0" index="0" speed="5.61" length="9.32" shape="722.04,925.22 720.81,922.66 719.31,921.62 717.56,922.09 715.53,924.08"/>
    </edge>
    <edge id=":10_1" function="internal">
        <lane id=":10_1_0" index="0" speed="13.89" length="15.73" shape="722.04,925.22 720.65,921.59 718.83,918.00 716.57,914.71 713.89,911.98"/>
    </edge>
    <edge id=":10_2" function="internal">
        <lane id=":10_2_0" index="0" speed="8.53" length="4.12" shape="722.04,925.22 721.18,921.19"/>
    </edge>
    <edge id=":10_3" function="internal">
        <lane id=":10_3_0" index="0" speed="3.65" length="1.44" shape="722.04,925.22 722.42,923.83"/>
    </edge>
    <edge id=":10_16" function="internal">
        <lane id=":10_16_0" index="0" speed="8.53" length="12.38" shape="721.18,921.19 720.97,920.24 721.43,916.30 723.40,913.41 726.89,911.57"/>
    </edge>
    <edge id=":10_17" function="internal">
        <lane id=":10_17_0" index="0" speed="3.65" length="3.23" shape="722.42,923.83 723.05,923.20 723.94,923.33 725.07,924.21"/>
    </edge>
    <edge id=":10_4" function="internal">
        <lane id=":10_4_0" index="0" speed="7.16" length="11.29" shape="727.83,914.63 725.65,915.85 724.46,917.86 724.27,920.65 725.07,924.21"/>
    </edge>
    <edge id=":10_5" function="internal">
        <lane id=":10_5_0" index="0" speed="13.89" length="15.72" shape="727.83,914.63 724.33,916.18 721.05,918.44 718.09,921.15 715.53,924.08"/>
    </edge>
    <edge id=":10_6" function="internal">
        <lane id=":10_6_0" index="0" speed="10.82" length="2.97" shape="727.83,914.63 724.92,915.19"/>
    </edge>
    <edge id=":10_7" function="internal">
        <lane id=":10_7_0" index="0" speed="3.65" length="1.31" shape="727.83,914.63 726.57,914.25"/>
    </edge>
    <edge id=":10_18" function="internal">
        <lane id=":10_18_0" index="0" speed="10.82" length="11.84" shape="724.92,915.19 724.05,915.36 720.47,915.17 717.08,914.04 713.89,911.98"/>
    </edge>
    <edge id=":10_19" function="internal">
        <lane id=":10_19_0" index="0" speed="3.65" length="3.36" shape="726.57,914.25 726.45,914.22 725.83,913.57 725.98,912.69 726.89,911.57"/>
    </edge>
    <edge id=":10_8" function="internal">
        <lane id=":10_8_0" index="0" speed="9.64" length="11.66" shape="715.91,909.50 718.42,911.12 721.09,912.00 723.91,912.15 726.89,911.57"/>
    </edge>
    <edge id=":10_9" function="internal">
        <lane id=":10_9_0" index="0" speed="13.89" length="17.51" shape="715.91,909.50 718.76,912.46 721.36,916.26 723.53,920.36 725.07,924.21"/>
    </edge>
    <edge id=":10_10" function="internal">
        <lane id=":10_10_0" index="0" speed="8.64" length="4.44" shape="715.91,909.50 718.42,912.47 718.54,913.00"/>
    </edge>
    <edge id=":10_11" function="internal">
        <lane id=":10_11_0" index="0" speed="3.65" length="1.44" shape="715.91,909.50 716.33,910.88"/>
    </edge>
    <edge id=":10_20" function="internal">
        <lane id=":10_20_0" index="0" speed="8.64" length="12.04" shape="718.54,913.00 719.19,915.90 718.23,919.77 715.53,924.08"/>
    </edge>
    <edge id=":10_21" function="internal">
        <lane id=":10_21_0" index="0" speed="3.65" length="3.23" shape="716.33,910.88 716.14,911.75 715.32,912.11 713.89,911.98"/>
    </edge>
    <edge id=":10_12" function="internal">
        <lane id=":10_12_0" index="0" speed="7.29" length="11.42" shape="713.02,922.11 715.01,919.00 715.83,916.27 715.45,913.93 713.89,911.98"/>
    </edge>
    <edge id=":10_13" function="internal">
        <lane id=":10_13_0" index="0" speed="13.89" length="17.61" shape="713.02,922.11 715.81,919.01 719.32,915.92 723.14,913.29 726.89,911.57"/>
    </edge>
    <edge id=":10_14" function="internal">
        <lane id=":10_14_0" index="0" speed="7.38" length="5.90" shape="713.02,922.11 716.77,918.42 717.38,918.25"/>
    </edge>
    <edge id=":10_15" function="internal">
        <lane id=":10_15_0" index="0" speed="3.65" length="1.44" shape="713.02,922.11 714.39,921.66"/>
    </edge>
    <edge id=":10_22" function="internal">
        <lane id=":10_22_0" index="0" speed="7.38" length="11.38" shape="717.38,918.25 720.03,917.54 722.80,919.47 725.07,924.21"/>
    </edge>
    <edge id=":10_23" function="internal">
        <lane id=":10_23_0" index="0" speed="3.65" length="3.23" shape="714.39,921.66 715.26,921.84 715.65,922.65 715.53,924.08"/>
    </edge>
    <edge id=":1004_0" function="internal">
        <lane id=":1004_0_0" index="0" speed="6.60" length="7.16" shape="745.20,1166.60 743.33,1166.29 741.66,1166.55 740.20,1167.39 738.94,1168.81"/>
    </edge>
    <edge id=":1004_1" function="internal">
        <lane id=":1004_1_0" index="0" speed="12.46" length="11.22" shape="745.20,1166.60 742.20,1165.57 740.05,1164.40 738.27,1162.74 736.36,1160.21"/>
    </edge>
    <edge id=":1004_2" function="internal">
        <lane id=":1004_2_0" index="0" speed="3.65" length="1.44" shape="745.20,1166.60 744.28,1165.49"/>
    </edge>
    <edge id=":1004_9" function="internal">
        <lane id=":1004_9_0" index="0" speed="3.65" length="3.23" shape="744.28,1165.49 744.13,1164.60 744.75,1163.95 746.13,1163.54"/>
    </edge>
    <edge id=":1004_3" function="internal">
        <lane id=":1004_3_0" index="0" speed="11.26" length="9.09" shape="738.99,1158.39 740.57,1160.54 741.92,1161.84 743.59,1162.70 746.13,1163.54"/>
    </edge>
    <edge id=":1004_4" function="internal">
        <lane id=":1004_4_0" index="0" speed="8.34" length="3.24" shape="738.99,1158.39 740.32,1160.97 740.37,1161.31"/>
    </edge>
    <edge id=":1004_5" function="internal">
        <lane id=":1004_5_0" index="0" speed="3.65" length="1.44" shape="738.99,1158.39 739.02,1159.84"/>
    </edge>
    <edge id=":1004_10" function="internal">
        <lane id=":1004_10_0" index="0" speed="8.34" length="7.90" shape="740.37,1161.31 740.75,1163.56 740.29,1166.17 738.94,1168.81"/>
    </edge>
    <edge id=":1004_11" function="internal">
        <lane id=":1004_11_0" index="0" speed="3.65" length="3.23" shape="739.02,1159.84 738.58,1160.62 737.70,1160.75 736.36,1160.21"/>
    </edge>
    <edge id=":1004_6" function="internal">
        <lane id=":1004_6_0" index="0" speed="6.85" length="7.27" shape="736.30,1167.01 737.19,1165.28 737.49,1163.57 737.22,1161.89 736.36,1160.21"/>
    </edge>
    <edge id=":1004_7" function="internal">
        <lane id=":1004_7_0" index="0" speed="8.12" length="11.26" shape="736.30,1167.01 738.28,1164.78 740.57,1163.46 743.19,1163.05 746.13,1163.54"/>
    </edge>
    <edge id=":1004_8" function="internal">
        <lane id=":1004_8_0" index="0" speed="3.65" length="1.44" shape="736.30,1167.01 737.63,1166.47"/>
    </edge>
    <edge id=":1004_12" function="internal">
        <lane id=":1004_12_0" index="0" speed="3.65" length="3.23" shape="737.63,1166.47 738.52,1166.59 738.96,1167.37 738.94,1168.81"/>
    </edge>
    <edge id=":1010_0" function="internal">
        <lane id=":1010_0_0" index="0" speed="3.65" length="4.67" shape="769.60,1429.28 768.37,1430.04 767.48,1430.07 766.92,1429.37 766.69,1427.95"/>
    </edge>
    <edge id=":1026_0" function="internal">
        <lane id=":1026_0_0" index="0" speed="3.65" length="4.67" shape="595.71,1057.97 594.83,1059.11 594.00,1059.45 593.23,1059.00 592.52,1057.74"/>
    </edge>
    <edge id=":1056_0" function="internal">
        <lane id=":1056_0_0" index="0" speed="3.65" length="4.67" shape="1463.54,414.90 1464.39,416.06 1464.49,416.95 1463.84,417.56 1462.44,417.90"/>
    </edge>
    <edge id=":1092_0" function="internal">
        <lane id=":1092_0_0" index="0" speed="3.65" length="4.67" shape="645.29,1306.49 643.95,1307.04 643.07,1306.92 642.63,1306.14 642.64,1304.69"/>
    </edge>
    <edge id=":115_0" function="internal">
        <lane id=":115_0_0" index="0" speed="5.67" length="9.24" shape="1054.83,557.63 1053.27,555.34 1051.63,554.50 1049.89,555.12 1048.06,557.20"/>
    </edge>
    <edge id=":115_1" function="internal">
        <lane id=":115_1_0" index="0" speed="11.86" length="15.57" shape="1054.83,557.63 1052.64,554.10 1049.97,551.33 1046.82,549.32 1043.20,548.09"/>
    </edge>
    <edge id=":115_2" function="internal">
        <lane id=":115_2_0" index="0" speed="3.65" length="1.34" shape="1054.83,557.63 1055.00,556.30"/>
    </edge>
    <edge id=":115_9" function="internal">
        <lane id=":115_9_0" index="0" speed="3.65" length="3.33" shape="1055.00,556.30 1055.01,556.20 1055.55,555.49 1056.44,555.49 1057.69,556.20"/>
    </edge>
    <edge id=":115_3" function="internal">
        <lane id=":115_3_0" index="0" speed="12.87" length="18.42" shape="1043.89,544.96 1048.21,546.43 1051.95,548.79 1055.11,552.05 1057.69,556.20"/>
    </edge>
    <edge id=":115_4" function="internal">
        <lane id=":115_4_0" index="0" speed="7.64" length="5.91" shape="1043.89,544.96 1048.18,546.62 1049.01,547.63"/>
    </edge>
    <edge id=":115_5" function="internal">
        <lane id=":115_5_0" index="0" speed="3.65" length="1.44" shape="1043.89,544.96 1044.89,546.00"/>
    </edge>
    <edge id=":115_10" function="internal">
        <lane id=":115_10_0" index="0" speed="7.64" length="10.55" shape="1049.01,547.63 1050.31,549.21 1050.27,552.74 1048.06,557.20"/>
    </edge>
    <edge id=":115_11" function="internal">
        <lane id=":115_11_0" index="0" speed="3.65" length="3.23" shape="1044.89,546.00 1045.10,546.87 1044.54,547.56 1043.20,548.09"/>
    </edge>
    <edge id=":115_6" function="internal">
        <lane id=":115_6_0" index="0" speed="6.02" length="9.74" shape="1045.40,555.43 1046.75,552.73 1046.84,550.61 1045.65,549.06 1043.20,548.09"/>
    </edge>
    <edge id=":115_7" function="internal">
        <lane id=":115_7_0" index="0" speed="7.41" length="16.77" shape="1045.40,555.43 1048.72,551.65 1051.88,550.52 1054.87,552.04 1057.69,556.20"/>
    </edge>
    <edge id=":115_8" function="internal">
        <lane id=":115_8_0" index="0" speed="3.65" length="1.44" shape="1045.40,555.43 1046.73,554.87"/>
    </edge>
    <edge id=":115_12" function="internal">
        <lane id=":115_12_0" index="0" speed="3.65" length="3.23" shape="1046.73,554.87 1047.62,554.99 1048.06,555.76 1048.06,557.20"/>
    </edge>
    <edge id=":118_0" function="internal">
        <lane id=":118_0_0" index="0" speed="13.89" length="17.12" shape="658.72,542.00 654.78,542.99 650.35,543.54 645.86,543.72 641.77,543.59"/>
    </edge>
    <edge id=":118_1" function="internal">
        <lane id=":118_1_0" index="0" speed="9.29" length="4.10" shape="658.72,542.00 655.09,542.53 654.68,542.41"/>
    </edge>
    <edge id=":118_2" function="internal">
        <lane id=":118_2_0" index="0" speed="3.65" length="1.44" shape="658.72,542.00 657.33,541.64"/>
    </edge>
    <edge id=":118_9" function="internal">
        <lane id=":118_9_0" index="0" speed="9.29" length="12.40" shape="654.68,542.41 651.66,541.51 648.43,538.94 645.40,534.81"/>
    </edge>
    <edge id=":118_10" function="internal">
        <lane id=":118_10_0" index="0" speed="3.65" length="3.23" shape="657.33,541.64 656.68,541.02 656.80,540.13 657.67,538.98"/>
    </edge>
    <edge id=":118_3" function="internal">
        <lane id=":118_3_0" index="0" speed="8.03" length="12.09" shape="648.15,533.17 650.44,536.37 652.78,538.40 655.19,539.27 657.67,538.98"/>
    </edge>
    <edge id=":118_4" function="internal">
        <lane id=":118_4_0" index="0" speed="7.38" length="17.43" shape="648.15,533.17 650.28,538.06 649.93,541.43 647.09,543.27 641.77,543.59"/>
    </edge>
    <edge id=":118_5" function="internal">
        <lane id=":118_5_0" index="0" speed="3.65" length="1.44" shape="648.15,533.17 648.08,534.61"/>
    </edge>
    <edge id=":118_11" function="internal">
        <lane id=":118_11_0" index="0" speed="3.65" length="3.23" shape="648.08,534.61 647.60,535.37 646.71,535.43 645.40,534.81"/>
    </edge>
    <edge id=":118_6" function="internal">
        <lane id=":118_6_0" index="0" speed="5.59" length="9.34" shape="641.98,540.40 644.83,540.23 646.35,539.24 646.54,537.43 645.40,534.81"/>
    </edge>
    <edge id=":118_7" function="internal">
        <lane id=":118_7_0" index="0" speed="13.89" length="15.84" shape="641.98,540.40 645.87,540.55 649.93,540.43 653.93,539.94 657.67,538.98"/>
    </edge>
    <edge id=":118_8" function="internal">
        <lane id=":118_8_0" index="0" speed="3.65" length="1.44" shape="641.98,540.40 643.13,541.28"/>
    </edge>
    <edge id=":118_12" function="internal">
        <lane id=":118_12_0" index="0" speed="3.65" length="3.23" shape="643.13,541.28 643.47,542.10 643.02,542.87 641.77,543.59"/>
    </edge>
    <edge id=":12_0" function="internal">
        <lane id=":12_0_0" index="0" speed="13.89" length="19.16" shape="962.24,697.79 959.23,694.61 955.17,691.40 950.79,688.59 946.85,686.63"/>
    </edge>
    <edge id=":12_1" function="internal">
        <lane id=":12_1_0" index="0" speed="13.89" length="20.94" shape="962.24,697.79 959.70,693.87 956.87,688.81 954.27,683.63 952.40,679.34"/>
    </edge>
    <edge id=":12_2" function="internal">
        <lane id=":12_2_0" index="0" speed="10.88" length="5.51" shape="962.24,697.79 959.94,693.47 959.85,692.86"/>
    </edge>
    <edge id=":12_3" function="internal">
        <lane id=":12_3_0" index="0" speed="7.68" length="5.06" shape="962.24,697.79 959.96,693.44 959.98,693.29"/>
    </edge>
    <edge id=":12_4" function="internal">
        <lane id=":12_4_0" index="0" speed="3.65" length="1.44" shape="962.24,697.79 962.17,696.35"/>
    </edge>
    <edge id=":12_25" function="internal">
        <lane id=":12_25_0" index="0" speed="10.88" length="14.52" shape="959.85,692.86 959.26,688.91 960.23,684.13 962.83,679.12"/>
    </edge>
    <edge id=":12_26" function="internal">
        <lane id=":12_26_0" index="0" speed="7.68" length="12.84" shape="959.98,693.29 960.29,690.04 963.24,687.60 968.80,686.12"/>
    </edge>
    <edge id=":12_27" function="internal">
        <lane id=":12_27_0" index="0" speed="3.65" length="3.23" shape="962.17,696.35 962.57,695.55 963.45,695.39 964.81,695.88"/>
    </edge>
    <edge id=":12_5" function="internal">
        <lane id=":12_5_0" index="0" speed="6.05" length="10.54" shape="969.26,689.28 965.82,690.16 963.93,691.55 963.60,693.46 964.81,695.88"/>
    </edge>
    <edge id=":12_6" function="internal">
        <lane id=":12_6_0" index="0" speed="13.89" length="22.69" shape="969.26,689.28 964.32,689.43 957.94,688.92 951.61,687.93 946.85,686.63"/>
    </edge>
    <edge id=":12_7" function="internal">
        <lane id=":12_7_0" index="0" speed="10.61" length="7.74" shape="969.26,689.28 963.58,689.34 961.64,688.67"/>
    </edge>
    <edge id=":12_8" function="internal">
        <lane id=":12_8_0" index="0" speed="7.40" length="7.33" shape="969.26,689.28 963.37,689.45 962.10,688.77"/>
    </edge>
    <edge id=":12_9" function="internal">
        <lane id=":12_9_0" index="0" speed="3.65" length="1.44" shape="969.26,689.28 967.96,688.66"/>
    </edge>
    <edge id=":12_28" function="internal">
        <lane id=":12_28_0" index="0" speed="10.61" length="13.66" shape="961.64,688.67 958.87,687.70 955.15,684.37 952.40,679.34"/>
    </edge>
    <edge id=":12_29" function="internal">
        <lane id=":12_29_0" index="0" speed="7.40" length="11.35" shape="962.10,688.77 960.33,687.82 960.16,684.37 962.83,679.12"/>
    </edge>
    <edge id=":12_30" function="internal">
        <lane id=":12_30_0" index="0" speed="3.65" length="3.23" shape="967.96,688.66 967.45,687.93 967.72,687.08 968.80,686.12"/>
    </edge>
    <edge id=":12_10" function="internal">
        <lane id=":12_10_0" index="0" speed="5.50" length="9.60" shape="965.50,680.90 964.12,683.59 964.21,685.36 965.77,686.20 968.80,686.12"/>
    </edge>
    <edge id=":12_11" function="internal">
        <lane id=":12_11_0" index="0" speed="9.79" length="16.07" shape="965.50,680.90 963.36,684.98 962.53,688.83 963.01,692.47 964.81,695.88"/>
    </edge>
    <edge id=":12_12" function="internal">
        <lane id=":12_12_0" index="0" speed="10.55" length="21.36" shape="965.50,680.90 961.73,685.15 957.37,687.53 952.41,688.02 946.85,686.63"/>
    </edge>
    <edge id=":12_13" function="internal">
        <lane id=":12_13_0" index="0" speed="7.65" length="18.93" shape="965.50,680.90 961.70,685.26 958.26,686.45 955.15,684.48 952.40,679.34"/>
    </edge>
    <edge id=":12_14" function="internal">
        <lane id=":12_14_0" index="0" speed="3.65" length="1.44" shape="965.50,680.90 964.16,681.45"/>
    </edge>
    <edge id=":12_31" function="internal">
        <lane id=":12_31_0" index="0" speed="3.65" length="3.23" shape="964.16,681.45 963.28,681.34 962.83,680.56 962.83,679.12"/>
    </edge>
    <edge id=":12_15" function="internal">
        <lane id=":12_15_0" index="0" speed="5.93" length="10.77" shape="955.39,678.19 956.96,681.13 958.72,682.26 960.68,681.59 962.83,679.12"/>
    </edge>
    <edge id=":12_16" function="internal">
        <lane id=":12_16_0" index="0" speed="9.51" length="17.03" shape="955.39,678.19 957.57,682.20 960.54,684.85 964.28,686.16 968.80,686.12"/>
    </edge>
    <edge id=":12_17" function="internal">
        <lane id=":12_17_0" index="0" speed="13.89" length="20.08" shape="955.39,678.19 957.20,682.36 959.65,687.28 962.33,692.08 964.81,695.88"/>
    </edge>
    <edge id=":12_18" function="internal">
        <lane id=":12_18_0" index="0" speed="7.40" length="4.41" shape="955.39,678.19 956.48,682.47"/>
    </edge>
    <edge id=":12_19" function="internal">
        <lane id=":12_19_0" index="0" speed="3.65" length="1.44" shape="955.39,678.19 955.07,679.60"/>
    </edge>
    <edge id=":12_32" function="internal">
        <lane id=":12_32_0" index="0" speed="7.40" length="14.40" shape="956.48,682.47 956.86,683.96 955.93,687.29 952.60,688.18 946.85,686.63"/>
    </edge>
    <edge id=":12_33" function="internal">
        <lane id=":12_33_0" index="0" speed="3.65" length="3.23" shape="955.07,679.60 954.47,680.26 953.58,680.17 952.40,679.34"/>
    </edge>
    <edge id=":12_20" function="internal">
        <lane id=":12_20_0" index="0" speed="5.49" length="9.62" shape="948.03,683.66 950.97,684.45 952.68,683.99 953.15,682.29 952.40,679.34"/>
    </edge>
    <edge id=":12_21" function="internal">
        <lane id=":12_21_0" index="0" speed="9.45" length="16.95" shape="948.03,683.66 952.45,684.76 956.38,684.37 959.85,682.49 962.83,679.12"/>
    </edge>
    <edge id=":12_22" function="internal">
        <lane id=":12_22_0" index="0" speed="13.89" length="21.03" shape="948.03,683.66 952.54,684.92 958.30,685.85 964.12,686.30 968.80,686.12"/>
    </edge>
    <edge id=":12_23" function="internal">
        <lane id=":12_23_0" index="0" speed="13.89" length="20.90" shape="948.03,683.66 952.19,685.78 957.04,688.96 961.58,692.54 964.81,695.88"/>
    </edge>
    <edge id=":12_24" function="internal">
        <lane id=":12_24_0" index="0" speed="3.65" length="1.33" shape="948.03,683.66 948.78,684.75"/>
    </edge>
    <edge id=":12_34" function="internal">
        <lane id=":12_34_0" index="0" speed="3.65" length="3.35" shape="948.78,684.75 948.85,684.84 948.93,685.74 948.26,686.33 946.85,686.63"/>
    </edge>
    <edge id=":122_0" function="internal">
        <lane id=":122_0_0" index="0" speed="6.55" length="7.91" shape="1330.45,655.64 1328.33,655.61 1326.60,656.23 1325.26,657.49 1324.32,659.39"/>
    </edge>
    <edge id=":122_1" function="internal">
        <lane id=":122_1_0" index="0" speed="8.64" length="12.14" shape="1330.45,655.64 1327.27,654.77 1324.81,653.23 1323.05,650.99 1321.99,648.08"/>
    </edge>
    <edge id=":122_2" function="internal">
        <lane id=":122_2_0" index="0" speed="3.65" length="1.44" shape="1330.45,655.64 1329.38,654.67"/>
    </edge>
    <edge id=":122_9" function="internal">
        <lane id=":122_9_0" index="0" speed="3.65" length="3.23" shape="1329.38,654.67 1329.10,653.82 1329.61,653.09 1330.91,652.47"/>
    </edge>
    <edge id=":122_3" function="internal">
        <lane id=":122_3_0" index="0" speed="7.22" length="8.24" shape="1325.12,647.40 1325.83,649.35 1327.04,650.84 1328.73,651.88 1330.91,652.47"/>
    </edge>
    <edge id=":122_4" function="internal">
        <lane id=":122_4_0" index="0" speed="13.89" length="12.20" shape="1325.12,647.40 1325.66,650.67 1325.71,653.45 1325.27,656.20 1324.32,659.39"/>
    </edge>
    <edge id=":122_5" function="internal">
        <lane id=":122_5_0" index="0" speed="3.65" length="1.44" shape="1325.12,647.40 1324.59,648.74"/>
    </edge>
    <edge id=":122_10" function="internal">
        <lane id=":122_10_0" index="0" speed="3.65" length="3.23" shape="1324.59,648.74 1323.89,649.30 1323.03,649.08 1321.99,648.08"/>
    </edge>
    <edge id=":122_6" function="internal">
        <lane id=":122_6_0" index="0" speed="13.89" length="10.53" shape="1321.29,658.36 1322.22,655.45 1322.63,653.28 1322.55,651.08 1321.99,648.08"/>
    </edge>
    <edge id=":122_7" function="internal">
        <lane id=":122_7_0" index="0" speed="8.05" length="3.47" shape="1321.29,658.36 1322.77,655.38 1322.87,655.29"/>
    </edge>
    <edge id=":122_8" function="internal">
        <lane id=":122_8_0" index="0" speed="3.65" length="1.44" shape="1321.29,658.36 1322.43,657.48"/>
    </edge>
    <edge id=":122_11" function="internal">
        <lane id=":122_11_0" index="0" speed="8.05" length="8.95" shape="1322.87,655.29 1324.87,653.41 1327.58,652.44 1330.91,652.47"/>
    </edge>
    <edge id=":122_12" function="internal">
        <lane id=":122_12_0" index="0" speed="3.65" length="3.23" shape="1322.43,657.48 1323.32,657.36 1323.95,657.99 1324.32,659.39"/>
    </edge>
    <edge id=":124_0" function="internal">
        <lane id=":124_0_0" index="0" speed="7.52" length="11.13" shape="1407.52,943.24 1405.30,941.16 1402.92,940.15 1400.37,940.24 1397.65,941.40"/>
    </edge>
    <edge id=":124_1" function="internal">
        <lane id=":124_1_0" index="0" speed="13.89" length="15.98" shape="1407.52,943.24 1396.99,931.21"/>
    </edge>
    <edge id=":124_2" function="internal">
        <lane id=":124_2_0" index="0" speed="7.62" length="3.99" shape="1407.52,943.24 1405.47,939.82"/>
    </edge>
    <edge id=":124_3" function="internal">
        <lane id=":124_3_0" index="0" speed="3.65" length="1.44" shape="1407.52,943.24 1407.38,941.80"/>
    </edge>
    <edge id=":124_16" function="internal">
        <lane id=":124_16_0" index="0" speed="7.62" length="11.30" shape="1405.47,939.82 1405.28,939.50 1405.01,936.23 1406.72,933.43 1410.41,931.09"/>
    </edge>
    <edge id=":124_17" function="internal">
        <lane id=":124_17_0" index="0" speed="3.65" length="3.23" shape="1407.38,941.80 1407.75,940.99 1408.63,940.80 1410.00,941.22"/>
    </edge>
    <edge id=":124_4" function="internal">
        <lane id=":124_4_0" index="0" speed="6.02" length="9.08" shape="1411.72,934.01 1409.53,935.40 1408.52,937.06 1408.67,939.00 1410.00,941.22"/>
    </edge>
    <edge id=":124_5" function="internal">
        <lane id=":124_5_0" index="0" speed="13.89" length="15.89" shape="1411.72,934.01 1408.20,935.66 1404.58,937.50 1401.01,939.44 1397.65,941.40"/>
    </edge>
    <edge id=":124_6" function="internal">
        <lane id=":124_6_0" index="0" speed="9.76" length="4.40" shape="1411.72,934.01 1407.62,935.27 1407.51,935.26"/>
    </edge>
    <edge id=":124_7" function="internal">
        <lane id=":124_7_0" index="0" speed="3.65" length="1.44" shape="1411.72,934.01 1410.30,933.77"/>
    </edge>
    <edge id=":124_18" function="internal">
        <lane id=":124_18_0" index="0" speed="9.76" length="11.71" shape="1407.51,935.26 1403.80,935.22 1400.25,933.87 1396.99,931.21"/>
    </edge>
    <edge id=":124_19" function="internal">
        <lane id=":124_19_0" index="0" speed="3.65" length="3.23" shape="1410.30,933.77 1409.60,933.21 1409.64,932.31 1410.41,931.09"/>
    </edge>
    <edge id=":124_8" function="internal">
        <lane id=":124_8_0" index="0" speed="8.54" length="12.12" shape="1399.32,929.01 1401.77,931.00 1404.43,932.01 1407.31,932.04 1410.41,931.09"/>
    </edge>
    <edge id=":124_9" function="internal">
        <lane id=":124_9_0" index="0" speed="13.89" length="16.23" shape="1399.32,929.01 1410.00,941.22"/>
    </edge>
    <edge id=":124_10" function="internal">
        <lane id=":124_10_0" index="0" speed="7.68" length="4.58" shape="1399.32,929.01 1401.77,932.50 1401.83,932.82"/>
    </edge>
    <edge id=":124_11" function="internal">
        <lane id=":124_11_0" index="0" speed="3.65" length="1.44" shape="1399.32,929.01 1399.56,930.44"/>
    </edge>
    <edge id=":124_20" function="internal">
        <lane id=":124_20_0" index="0" speed="7.68" length="10.47" shape="1401.83,932.82 1402.31,935.72 1400.94,938.69 1397.65,941.40"/>
    </edge>
    <edge id=":124_21" function="internal">