<?xml version="1.0" encoding="UTF-8"?>

<!-- generated on 2024-02-11 10:31:12.886611 by osmWebWizard.py UNKNOWN
<configuration>
    <net-file value="C:\workspace\sumo-env\first\2024-02-11-10-31-06\osm.net.xml.gz"/>
    <output-trip-file value="C:\workspace\sumo-env\first\2024-02-11-10-31-06\osm.passenger.trips.xml"/>
    <route-file value="C:\workspace\sumo-env\first\2024-02-11-10-31-06\osm.passenger.rou.xml"/>
    <prefix value="veh"/>
    <trip-attributes value="departLane=&quot;best&quot;"/>
    <fringe-start-attributes value="departSpeed=&quot;max&quot;"/>
    <vehicle-class value="passenger"/>
    <lanes value="True"/>
    <fringe-factor value="20"/>
    <allow-fringe.min-length value="1000.0"/>
    <via-edge-types value="highway.motorway,highway.motorway_link,highway.trunk_link,highway.primary_link,highway.secondary_link,highway.tertiary_link"/>
    <min-distance value="300.0"/>
    <min-distance.fringe value="10.0"/>
    <remove-loops value="True"/>
    <validate value="True"/>
    <insertion-density value="240.0"/>
</configuration>
-->

<!-- generated on 2024-02-11 10:31:12 by Eclipse SUMO duarouter Version 1.19.0
<configuration xmlns:xsi="http://www.w3.org/2001/XMLSchema-instance" xsi:noNamespaceSchemaLocation="http://sumo.dlr.de/xsd/duarouterConfiguration.xsd">

    <input>
        <net-file value="C:\workspace\sumo-env\first\2024-02-11-10-31-06\osm.net.xml.gz"/>
        <route-files value="C:\workspace\sumo-env\first\2024-02-11-10-31-06\osm.passenger.trips.xml"/>
    </input>

    <output>
        <output-file value="C:\workspace\sumo-env\first\2024-02-11-10-31-06\osm.passenger.trips.xml.tmp"/>
        <alternatives-output value="NUL"/>
        <write-trips value="true"/>
    </output>

    <processing>
        <remove-loops value="true"/>
    </processing>

    <time>
        <begin value="0.0"/>
        <end value="3600.0"/>
    </time>

    <report>
        <no-warnings value="true"/>
        <ignore-errors value="true"/>
        <no-step-log value="true"/>
    </report>

</configuration>
-->

<routes xmlns:xsi="http://www.w3.org/2001/XMLSchema-instance" xsi:noNamespaceSchemaLocation="http://sumo.dlr.de/xsd/routes_file.xsd">
    <vType id="veh_passenger" vClass="passenger"/>
    <trip id="veh0" type="veh_passenger" depart="0.00" departLane="best" departSpeed="max" from="264961857#0" to="14481555#5"/>
    <trip id="veh1" type="veh_passenger" depart="0.73" departLane="best" departSpeed="max" from="278444277" to="409341885#1"/>
    <trip id="veh3" type="veh_passenger" depart="2.20" departLane="best" departSpeed="max" from="208472218" to="263590269#0"/>
    <trip id="veh5" type="veh_passenger" depart="3.67" departLane="best" departSpeed="max" from="264961857#0" to="263590302#2"/>
    <trip id="veh7" type="veh_passenger" depart="5.13" departLane="best" departSpeed="max" from="43341984" to="23597854#2"/>
    <trip id="veh10" type="veh_passenger" depart="7.33" departLane="best" departSpeed="max" from="310962293#0" to="285250603#2"/>
    <trip id="veh12" type="veh_passenger" depart="8.80" departLane="best" departSpeed="max" from="264961861" to="183003886"/>
    <trip id="veh15" type="veh_passenger" depart="11.00" departLane="best" from="23597852#3" to="23597838#8"/>
    <trip id="veh16" type="veh_passenger" depart="11.73" departLane="best" departSpeed="max" from="23597836#0" to="915623290#2"/>
    <trip id="veh18" type="veh_passenger" depart="13.20" departLane="best" from="916002836" to="285250603#2"/>
    <trip id="veh19" type="veh_passenger" depart="13.93" departLane="best" departSpeed="max" from="263590288" to="41648435#1"/>
    <trip id="veh20" type="veh_passenger" depart="14.66" departLane="best" departSpeed="max" from="310962293#0" to="42071638#1"/>
    <trip id="veh21" type="veh_passenger" depart="15.40" departLane="best" departSpeed="max" from="208472218" to="183003886"/>
    <trip id="veh22" type="veh_passenger" depart="16.13" departLane="best" departSpeed="max" from="23597836#0" to="23597846#6"/>
    <trip id="veh23" type="veh_passenger" depart="16.86" departLane="best" from="206679952#6" to="915623290#2"/>
    <trip id="veh24" type="veh_passenger" depart="17.60" departLane="best" departSpeed="max" from="310962293#0" to="23597854#2"/>
    <trip id="veh26" type="veh_passenger" depart="19.06" departLane="best" departSpeed="max" from="43334445#0" to="263590269#0"/>
    <trip id="veh27" type="veh_passenger" depart="19.80" departLane="best" departSpeed="max" from="263590288" to="23597846#6"/>
    <trip id="veh28" type="veh_passenger" depart="20.53" departLane="best" departSpeed="max" from="263590288" to="84830164#0"/>
    <trip id="veh30" type="veh_passenger" depart="22.00" departLane="best" from="916002837#1" to="263590269#0"/>
    <trip id="veh32" type="veh_passenger" depart="23.46" departLane="best" departSpeed="max" from="285256040" to="263590267#0"/>
    <trip id="veh33" type="veh_passenger" depart="24.20" departLane="best" departSpeed="max" from="127626598#0" to="245337293#0"/>
    <trip id="veh34" type="veh_passenger" depart="24.93" departLane="best" from="915101541" to="42071638#1"/>
    <trip id="veh35" type="veh_passenger" depart="25.66" departLane="best" departSpeed="max" from="23597836#0" to="285250603#2"/>
    <trip id="veh37" type="veh_passenger" depart="27.13" departLane="best" departSpeed="max" from="310962293#0" to="23597846#6"/>
    <trip id="veh38" type="veh_passenger" depart="27.86" departLane="best" from="263590261#2" to="23597838#8"/>
    <trip id="veh39" type="veh_passenger" depart="28.59" departLane="best" departSpeed="max" from="43334445#0" to="42071638#1"/>
    <trip id="veh40" type="veh_passenger" depart="29.33" departLane="best" departSpeed="max" from="23597836#0" to="285250603#2"/>
    <trip id="veh41" type="veh_passenger" depart="30.06" departLane="best" departSpeed="max" from="264961857#0" to="23597838#0"/>
    <trip id="veh42" type="veh_passenger" depart="30.79" departLane="best" departSpeed="max" from="285256040" to="263590302#0"/>
    <trip id="veh43" type="veh_passenger" depart="31.53" departLane="best" departSpeed="max" from="285256040" to="263590278#2"/>
    <trip id="veh44" type="veh_passenger" depart="32.26" departLane="best" from="-222398473#0" to="23597854#2"/>
    <trip id="veh46" type="veh_passenger" depart="33.73" departLane="best" departSpeed="max" from="310962293#0" to="42071638#1"/>
    <trip id="veh47" type="veh_passenger" depart="34.46" departLane="best" departSpeed="max" from="23597836#0" to="183003886"/>
    <trip id="veh48" type="veh_passenger" depart="35.19" departLane="best" departSpeed="max" from="310962293#0" to="915623290#2"/>
    <trip id="veh52" type="veh_passenger" depart="38.13" departLane="best" departSpeed="max" from="23597836#0" to="42071638#1"/>
    <trip id="veh54" type="veh_passenger" depart="39.59" departLane="best" departSpeed="max" from="263590288" to="41648435#1"/>
    <trip id="veh56" type="veh_passenger" depart="41.06" departLane="best" from="916002837#1" to="285250603#2"/>
    <trip id="veh59" type="veh_passenger" depart="43.26" departLane="best" departSpeed="max" from="208472218" to="23597838#8"/>
    <trip id="veh61" type="veh_passenger" depart="44.72" departLane="best" departSpeed="max" from="310962293#0" to="183003886"/>
    <trip id="veh62" type="veh_passenger" depart="45.46" departLane="best" departSpeed="max" from="208472218" to="310962293#2"/>
    <trip id="veh64" type="veh_passenger" depart="46.92" departLane="best" departSpeed="max" from="245337296#0" to="42071638#1"/>
    <trip id="veh65" type="veh_passenger" depart="47.66" departLane="best" departSpeed="max" from="285256040" to="23597838#8"/>
    <trip id="veh68" type="veh_passenger" depart="49.86" departLane="best" from="245337293#4" to="183003886"/>
    <trip id="veh70" type="veh_passenger" depart="51.32" departLane="best" departSpeed="max" from="310962293#0" to="23597838#8"/>
    <trip id="veh73" type="veh_passenger" depart="53.52" departLane="best" from="245337293#3" to="42071638#1"/>
    <trip id="veh74" type="veh_passenger" depart="54.26" departLane="best" departSpeed="max" from="263590288" to="183003886"/>
    <trip id="veh76" type="veh_passenger" depart="55.72" departLane="best" departSpeed="max" from="310962293#0" to="23597838#3"/>
    <trip id="veh77" type="veh_passenger" depart="56.46" departLane="best" departSpeed="max" from="245337296#0" to="23597838#8"/>
    <trip id="veh79" type="veh_passenger" depart="57.92" departLane="best" departSpeed="max" from="23597836#0" to="42071638#1"/>
    <trip id="veh80" type="veh_passenger" depart="58.66" departLane="best" departSpeed="max" from="245337296#0" to="263590267#0"/>
    <trip id="veh81" type="veh_passenger" depart="59.39" departLane="best" departSpeed="max" from="43341984" to="263590267#0"/>
    <trip id="veh82" type="veh_passenger" depart="60.12" departLane="best" departSpeed="max" from="263590288" to="41648435#1"/>
    <trip id="veh85" type="veh_passenger" depart="62.32" departLane="best" departSpeed="max" from="263590288" to="42071638#1"/>
    <trip id="veh87" type="veh_passenger" depart="63.79" departLane="best" from="263590263#1" to="42071638#1"/>
    <trip id="veh92" type="veh_passenger" depart="67.45" departLane="best" departSpeed="max" from="263590288" to="285250603#2"/>
    <trip id="veh94" type="veh_passenger" depart="68.92" departLane="best" from="263590270#1" to="915623290#2"/>
    <trip id="veh95" type="veh_passenger" depart="69.65" departLane="best" departSpeed="max" from="23597836#0" to="42071638#1"/>
    <trip id="veh98" type="veh_passenger" depart="71.85" departLane="best" departSpeed="max" from="23597836#0" to="915623290#1"/>
    <trip id="veh99" type="veh_passenger" depart="72.59" departLane="best" from="310962293#2" to="42071638#1"/>
    <trip id="veh100" type="veh_passenger" depart="73.32" departLane="best" from="23597852#3" to="23597838#1"/>
    <trip id="veh101" type="veh_passenger" depart="74.05" departLane="best" departSpeed="max" from="310962293#0" to="41648435#1"/>
    <trip id="veh102" type="veh_passenger" depart="74.79" departLane="best" departSpeed="max" from="264961857#0" to="916002836"/>
    <trip id="veh103" type="veh_passenger" depart="75.52" departLane="best" departSpeed="max" from="264961857#0" to="23597846#4"/>
    <trip id="veh104" type="veh_passenger" depart="76.25" departLane="best" departSpeed="max" from="285256040" to="23597852#4"/>
    <trip id="veh105" type="veh_passenger" depart="76.98" departLane="best" departSpeed="max" from="264961857#0" to="915623290#2"/>
    <trip id="veh107" type="veh_passenger" depart="78.45" departLane="best" departSpeed="max" from="264961857#0" to="23597846#6"/>
    <trip id="veh108" type="veh_passenger" depart="79.18" departLane="best" from="245337296#1" to="84830164#3"/>
    <trip id="veh109" type="veh_passenger" depart="79.92" departLane="best" departSpeed="max" from="310962293#0" to="183003886"/>
    <trip id="veh111" type="veh_passenger" depart="81.38" departLane="best" departSpeed="max" from="264961857#0" to="23597846#6"/>
    <trip id="veh115" type="veh_passenger" depart="84.32" departLane="best" departSpeed="max" from="23597836#0" to="84830164#1"/>
    <trip id="veh116" type="veh_passenger" depart="85.05" departLane="best" departSpeed="max" from="43334445#0" to="23597838#8"/>
    <trip id="veh117" type="veh_passenger" depart="85.78" departLane="best" departSpeed="max" from="208472218" to="183003886"/>
    <trip id="veh119" type="veh_passenger" depart="87.25" departLane="best" departSpeed="max" from="310962293#0" to="915623290#2"/>
    <trip id="veh120" type="veh_passenger" depart="87.98" departLane="best" from="23597836#5" to="915623290#0"/>
    <trip id="veh122" type="veh_passenger" depart="89.45" departLane="best" departSpeed="max" from="310962293#0" to="42071638#1"/>
    <trip id="veh123" type="veh_passenger" depart="90.18" departLane="best" departSpeed="max" from="245337296#0" to="23597854#2"/>
    <trip id="veh124" type="veh_passenger" depart="90.92" departLane="best" departSpeed="max" from="285256040" to="23597838#8"/>
    <trip id="veh126" type="veh_passenger" depart="92.38" departLane="best" from="23597836#4" to="42071638#1"/>
    <trip id="veh127" type="veh_passenger" depart="93.11" departLane="best" departSpeed="max" from="43341984" to="206679952#5"/>
    <trip id="veh128" type="veh_passenger" depart="93.85" departLane="best" from="915101541" to="23597838#8"/>
    <trip id="veh131" type="veh_passenger" depart="96.05" departLane="best" departSpeed="max" from="278444277" to="23597854#2"/>
    <trip id="veh133" type="veh_passenger" depart="97.51" departLane="best" departSpeed="max" from="208472218" to="41648435#1"/>
    <trip id="veh136" type="veh_passenger" depart="99.71" departLane="best" departSpeed="max" from="278444277" to="310962293#2"/>
    <trip id="veh137" type="veh_passenger" depart="100.45" departLane="best" from="23597852#0" to="183003886"/>
    <trip id="veh138" type="veh_passenger" depart="101.18" departLane="best" departSpeed="max" from="23597836#0" to="42071638#1"/>
    <trip id="veh139" type="veh_passenger" depart="101.91" departLane="best" departSpeed="max" from="278444277" to="23597854#0"/>
    <trip id="veh142" type="veh_passenger" depart="104.11" departLane="best" departSpeed="max" from="43341984" to="41648435#0"/>
    <trip id="veh143" type="veh_passenger" depart="104.85" departLane="best" departSpeed="max" from="43334445#0" to="285250603#2"/>
    <trip id="veh145" type="veh_passenger" depart="106.31" departLane="best" from="-222398473#0" to="23597846#6"/>
    <trip id="veh147" type="veh_passenger" depart="107.78" departLane="best" departSpeed="max" from="264961857#0" to="263590269#0"/>
    <trip id="veh148" type="veh_passenger" depart="108.51" departLane="best" from="245337293#2" to="23597838#8"/>
    <trip id="veh149" type="veh_passenger" depart="109.24" departLane="best" departSpeed="max" from="245337296#0" to="84830164#2"/>
    <trip id="veh150" type="veh_passenger" depart="109.98" departLane="best" departSpeed="max" from="285256040" to="23597838#4"/>
    <trip id="veh152" type="veh_passenger" depart="111.44" departLane="best" departSpeed="max" from="208472218" to="263590269#0"/>
    <trip id="veh153" type="veh_passenger" depart="112.18" departLane="best" departSpeed="max" from="310962293#0" to="183003886"/>
    <trip id="veh155" type="veh_passenger" depart="113.64" departLane="best" from="263590261#0" to="23597838#8"/>
    <trip id="veh156" type="veh_passenger" depart="114.38" departLane="best" departSpeed="max" from="264961857#0" to="23597846#2"/>
    <trip id="veh160" type="veh_passenger" depart="117.31" departLane="best" from="263590270#0" to="183003886"/>
    <trip id="veh161" type="veh_passenger" depart="118.04" departLane="best" departSpeed="max" from="245337296#0" to="42071638#1"/>
    <trip id="veh162" type="veh_passenger" depart="118.78" departLane="best" from="264961857#1" to="916002836"/>
    <trip id="veh163" type="veh_passenger" depart="119.51" departLane="best" departSpeed="max" from="263590288" to="915623290#2"/>
    <trip id="veh165" type="veh_passenger" depart="120.98" departLane="best" departSpeed="max" from="278444277" to="263590269#0"/>
    <trip id="veh167" type="veh_passenger" depart="122.44" departLane="best" departSpeed="max" from="43334445#0" to="42071638#1"/>
    <trip id="veh168" type="veh_passenger" depart="123.18" departLane="best" departSpeed="max" from="245337296#0" to="23597846#3"/>
    <trip id="veh169" type="veh_passenger" depart="123.91" departLane="best" departSpeed="max" from="208472218" to="285250603#2"/>
    <trip id="veh170" type="veh_passenger" depart="124.64" departLane="best" departSpeed="max" from="285256040" to="263590278#0"/>
    <trip id="veh171" type="veh_passenger" depart="125.38" departLane="best" departSpeed="max" from="264961857#0" to="23597846#6"/>
    <trip id="veh173" type="veh_passenger" depart="126.84" departLane="best" departSpeed="max" from="208472218" to="41648435#1"/>
    <trip id="veh174" type="veh_passenger" depart="127.57" departLane="best" departSpeed="max" from="264961861" to="183003886"/>
    <trip id="veh178" type="veh_passenger" depart="130.51" departLane="best" departSpeed="max" from="263590288" to="41648435#1"/>
    <trip id="veh179" type="veh_passenger" depart="131.24" departLane="best" departSpeed="max" from="310962293#0" to="42071638#1"/>
    <trip id="veh182" type="veh_passenger" depart="133.44" departLane="best" departSpeed="max" from="310962293#0" to="915623290#2"/>
    <trip id="veh185" type="veh_passenger" depart="135.64" departLane="best" departSpeed="max" from="208472218" to="23597838#8"/>
    <trip id="veh187" type="veh_passenger" depart="137.11" departLane="best" from="23597836#7" to="41648435#0"/>
    <trip id="veh189" type="veh_passenger" depart="138.57" departLane="best" departSpeed="max" from="245337296#0" to="23597838#2"/>
    <trip id="veh190" type="veh_passenger" depart="139.31" departLane="best" departSpeed="max" from="264961857#0" to="14481555#6"/>
    <trip id="veh192" type="veh_passenger" depart="140.77" departLane="best" departSpeed="max" from="-23597846#6" to="285250603#2"/>
    <trip id="veh195" type="veh_passenger" depart="142.97" departLane="best" from="206679952#7" to="23597854#2"/>
    <trip id="veh198" type="veh_passenger" depart="145.17" departLane="best" departSpeed="max" from="208472218" to="183003886"/>
    <trip id="veh200" type="veh_passenger" depart="146.64" departLane="best" from="916021640" to="23597854#2"/>
    <trip id="veh201" type="veh_passenger" depart="147.37" departLane="best" departSpeed="max" from="264961857#0" to="42071638#1"/>
    <trip id="veh202" type="veh_passenger" depart="148.10" departLane="best" departSpeed="max" from="264961857#0" to="42071638#1"/>
    <trip id="veh203" type="veh_passenger" depart="148.84" departLane="best" departSpeed="max" from="43341984" to="23597838#8"/>
    <trip id="veh206" type="veh_passenger" depart="151.04" departLane="best" departSpeed="max" from="263590288" to="23597838#8"/>
    <trip id="veh207" type="veh_passenger" depart="151.77" departLane="best" departSpeed="max" from="264961861" to="42071638#1"/>
    <trip id="veh209" type="veh_passenger" depart="153.24" departLane="best" departSpeed="max" from="285256040" to="915623290#2"/>
    <trip id="veh211" type="veh_passenger" depart="154.70" departLane="best" departSpeed="max" from="23597836#0" to="41648435#0"/>
    <trip id="veh213" type="veh_passenger" depart="156.17" departLane="best" departSpeed="max" from="278444277" to="183003886"/>
    <trip id="veh214" type="veh_passenger" depart="156.90" departLane="best" departSpeed="max" from="264961861" to="285250603#2"/>
    <trip id="veh217" type="veh_passenger" depart="159.10" departLane="best" departSpeed="max" from="285256040" to="23597854#2"/>
    <trip id="veh219" type="veh_passenger" depart="160.57" departLane="best" departSpeed="max" from="310962293#0" to="42071638#1"/>
    <trip id="veh221" type="veh_passenger" depart="162.03" departLane="best" departSpeed="max" from="264961857#0" to="42071638#1"/>
    <trip id="veh222" type="veh_passenger" depart="162.77" departLane="best" departSpeed="max" from="264961861" to="263590269#0"/>
    <trip id="veh223" type="veh_passenger" depart="163.50" departLane="best" departSpeed="max" from="278444277" to="915623290#2"/>
    <trip id="veh224" type="veh_passenger" depart="164.23" departLane="best" departSpeed="max" from="23597836#0" to="42071638#1"/>
    <trip id="veh226" type="veh_passenger" depart="165.70" departLane="best" departSpeed="max" from="23597836#0" to="42071638#1"/>
    <trip id="veh227" type="veh_passenger" depart="166.43" departLane="best" departSpeed="max" from="310962293#0" to="183003886"/>
    <trip id="veh228" type="veh_passenger" depart="167.17" departLane="best" from="310962293#2" to="23597838#8"/>
    <trip id="veh229" type="veh_passenger" depart="167.90" departLane="best" departSpeed="max" from="245337296#0" to="285250603#2"/>
    <trip id="veh230" type="veh_passenger" depart="168.63" departLane="best" departSpeed="max" from="310962293#0" to="23597838#8"/>
    <trip id="veh231" type="veh_passenger" depart="169.37" departLane="best" from="206679952#7" to="42071638#1"/>
    <trip id="veh232" type="veh_passenger" depart="170.10" departLane="best" from="23597838#1" to="42071638#1"/>
    <trip id="veh233" type="veh_passenger" depart="170.83" departLane="best" departSpeed="max" from="264961861" to="23597846#6"/>
    <trip id="veh235" type="veh_passenger" depart="172.30" departLane="best" from="245337296#1" to="42071638#1"/>
    <trip id="veh236" type="veh_passenger" depart="173.03" departLane="best" departSpeed="max" from="264961861" to="285250603#2"/>
    <trip id="veh239" type="veh_passenger" depart="175.23" departLane="best" departSpeed="max" from="278444277" to="23597854#2"/>
    <trip id="veh240" type="veh_passenger" depart="175.97" departLane="best" departSpeed="max" from="264961861" to="23597846#6"/>
    <trip id="veh244" type="veh_passenger" depart="178.90" departLane="best" departSpeed="max" from="245337296#0" to="41648435#1"/>
    <trip id="veh245" type="veh_passenger" depart="179.63" departLane="best" from="915101543" to="263590278#0"/>
    <trip id="veh246" type="veh_passenger" depart="180.36" departLane="best" departSpeed="max" from="23597836#0" to="183003886"/>
    <trip id="veh251" type="veh_passenger" depart="184.03" departLane="best" departSpeed="max" from="264961861" to="235152206#0"/>
    <trip id="veh252" type="veh_passenger" depart="184.76" departLane="best" departSpeed="max" from="310962293#0" to="263590269#0"/>
    <trip id="veh254" type="veh_passenger" depart="186.23" departLane="best" departSpeed="max" from="245337296#0" to="263590269#0"/>
    <trip id="veh255" type="veh_passenger" depart="186.96" departLane="best" departSpeed="max" from="310962293#0" to="263590249"/>
    <trip id="veh258" type="veh_passenger" depart="189.16" departLane="best" departSpeed="max" from="285256040" to="285250603#0"/>
    <trip id="veh259" type="veh_passenger" depart="189.90" departLane="best" departSpeed="max" from="285256040" to="23597838#8"/>
    <trip id="veh260" type="veh_passenger" depart="190.63" departLane="best" from="263590270#1" to="263590269#0"/>
    <trip id="veh261" type="veh_passenger" depart="191.36" departLane="best" from="245337293#2" to="42071638#1"/>
    <trip id="veh262" type="veh_passenger" depart="192.10" departLane="best" from="916002836" to="23597854#2"/>
    <trip id="veh263" type="veh_passenger" depart="192.83" departLane="best" departSpeed="max" from="278444277" to="915623290#2"/>
    <trip id="veh265" type="veh_passenger" depart="194.29" departLane="best" departSpeed="max" from="263590288" to="23597852#1"/>
    <trip id="veh266" type="veh_passenger" depart="195.03" departLane="best" departSpeed="max" from="208472218" to="41648435#1"/>
    <trip id="veh267" type="veh_passenger" depart="195.76" departLane="best" departSpeed="max" from="264961861" to="263590269#0"/>
    <trip id="veh268" type="veh_passenger" depart="196.49" departLane="best" departSpeed="max" from="264961861" to="915203520"/>
    <trip id="veh269" type="veh_passenger" depart="197.23" departLane="best" departSpeed="max" from="285256040" to="285250603#2"/>
    <trip id="veh270" type="veh_passenger" depart="197.96" departLane="best" departSpeed="max" from="264961857#0" to="915623290#1"/>
    <trip id="veh272" type="veh_passenger" depart="199.43" departLane="best" departSpeed="max" from="264961857#0" to="84830164#4"/>
    <trip id="veh273" type="veh_passenger" depart="200.16" departLane="best" departSpeed="max" from="310962293#0" to="183003886"/>
    <trip id="veh276" type="veh_passenger" depart="202.36" departLane="best" departSpeed="max" from="264961861" to="41648435#1"/>
    <trip id="veh277" type="veh_passenger" depart="203.09" departLane="best" from="263590261#0" to="183003886"/>
    <trip id="veh280" type="veh_passenger" depart="205.29" departLane="best" departSpeed="max" from="43341984" to="916021640"/>
    <trip id="veh281" type="veh_passenger" depart="206.03" departLane="best" departSpeed="max" from="264961861" to="23597846#6"/>
    <trip id="veh282" type="veh_passenger" depart="206.76" departLane="best" departSpeed="max" from="245337296#0" to="285250603#2"/>
    <trip id="veh283" type="veh_passenger" depart="207.49" departLane="best" departSpeed="max" from="43334445#0" to="23597838#8"/>
    <trip id="veh284" type="veh_passenger" depart="208.23" departLane="best" departSpeed="max" from="263590288" to="285250603#2"/>
    <trip id="veh286" type="veh_passenger" depart="209.69" departLane="best" from="23597838#3" to="23597854#2"/>
    <trip id="veh287" type="veh_passenger" depart="210.42" departLane="best" departSpeed="max" from="264961861" to="42071638#1"/>
    <trip id="veh288" type="veh_passenger" depart="211.16" departLane="best" from="23597836#4" to="41648435#1"/>
    <trip id="veh289" type="veh_passenger" depart="211.89" departLane="best" departSpeed="max" from="23597836#0" to="915623290#2"/>
    <trip id="veh291" type="veh_passenger" depart="213.36" departLane="best" departSpeed="max" from="245337296#0" to="23597854#2"/>
    <trip id="veh292" type="veh_passenger" depart="214.09" departLane="best" from="23597836#2" to="915623290#2"/>
    <trip id="veh294" type="veh_passenger" depart="215.56" departLane="best" from="916002836" to="285250603#2"/>
    <trip id="veh295" type="veh_passenger" depart="216.29" departLane="best" departSpeed="max" from="263590288" to="263590261#2"/>
    <trip id="veh296" type="veh_passenger" depart="217.02" departLane="best" from="285254283#0" to="285250603#2"/>
    <trip id="veh297" type="veh_passenger" depart="217.76" departLane="best" from="245337293#0" to="41648435#1"/>
    <trip id="veh300" type="veh_passenger" depart="219.96" departLane="best" departSpeed="max" from="263590288" to="183003886"/>
    <trip id="veh301" type="veh_passenger" depart="220.69" departLane="best" departSpeed="max" from="245337296#0" to="206679952#6"/>
    <trip id="veh302" type="veh_passenger" depart="221.42" departLane="best" departSpeed="max" from="310962293#0" to="263590269#0"/>
    <trip id="veh303" type="veh_passenger" depart="222.16" departLane="best" departSpeed="max" from="278444277" to="263590269#0"/>
    <trip id="veh304" type="veh_passenger" depart="222.89" departLane="best" departSpeed="max" from="23597836#0" to="42071638#1"/>
    <trip id="veh305" type="veh_passenger" depart="223.62" departLane="best" from="915203520" to="23597838#8"/>
    <trip id="veh306" type="veh_passenger" depart="224.36" departLane="best" departSpeed="max" from="263590288" to="245337293#0"/>
    <trip id="veh307" type="veh_passenger" depart="225.09" departLane="best" departSpeed="max" from="43334445#0" to="263590269#0"/>
    <trip id="veh308" type="veh_passenger" depart="225.82" departLane="best" departSpeed="max" from="310962293#0" to="42071638#1"/>
    <trip id="veh309" type="veh_passenger" depart="226.55" departLane="best" departSpeed="max" from="23597836#0" to="42071638#1"/>
    <trip id="veh311" type="veh_passenger" depart="228.02" departLane="best" departSpeed="max" from="23597836#0" to="23597852#4"/>
    <trip id="veh312" type="veh_passenger" depart="228.75" departLane="best" departSpeed="max" from="263590288" to="916021640"/>
    <trip id="veh314" type="veh_passenger" depart="230.22" departLane="best" from="263590278#3" to="23597854#2"/>
    <trip id="veh315" type="veh_passenger" depart="230.95" departLane="best" departSpeed="max" from="263590288" to="263590302#2"/>
    <trip id="veh316" type="veh_passenger" depart="231.69" departLane="best" departSpeed="max" from="245337296#0" to="23597854#2"/>
    <trip id="veh318" type="veh_passenger" depart="233.15" departLane="best" departSpeed="max" from="263590288" to="23597838#8"/>
    <trip id="veh319" type="veh_passenger" depart="233.89" departLane="best" departSpeed="max" from="285256040" to="245337293#1"/>
    <trip id="veh320" type="veh_passenger" depart="234.62" departLane="best" departSpeed="max" from="264961857#0" to="42071638#1"/>
    <trip id="veh321" type="veh_passenger" depart="235.35" departLane="best" departSpeed="max" from="127626598#0" to="263590269#0"/>
    <trip id="veh322" type="veh_passenger" depart="236.09" departLane="best" departSpeed="max" from="263590288" to="42071638#1"/>
    <trip id="veh323" type="veh_passenger" depart="236.82" departLane="best" departSpeed="max" from="310962293#0" to="263590269#0"/>
    <trip id="veh324" type="veh_passenger" depart="237.55" departLane="best" from="263590270#2" to="263590269#0"/>
    <trip id="veh326" type="veh_passenger" depart="239.02" departLane="best" departSpeed="max" from="264961857#0" to="23597838#0"/>
    <trip id="veh327" type="veh_passenger" depart="239.75" departLane="best" from="23597838#0" to="41648435#1"/>
    <trip id="veh328" type="veh_passenger" depart="240.49" departLane="best" departSpeed="max" from="264961857#0" to="42071638#1"/>
    <trip id="veh329" type="veh_passenger" depart="241.22" departLane="best" departSpeed="max" from="310962293#0" to="42071638#1"/>
    <trip id="veh331" type="veh_passenger" depart="242.69" departLane="best" departSpeed="max" from="278444277" to="42071638#1"/>
    <trip id="veh332" type="veh_passenger" depart="243.42" departLane="best" departSpeed="max" from="310962293#0" to="183003886"/>
    <trip id="veh334" type="veh_passenger" depart="244.88" departLane="best" departSpeed="max" from="43334445#0" to="263590267#0"/>
    <trip id="veh335" type="veh_passenger" depart="245.62" departLane="best" departSpeed="max" from="278444277" to="263590269#0"/>
    <trip id="veh337" type="veh_passenger" depart="247.08" departLane="best" departSpeed="max" from="310962293#0" to="263590269#0"/>
    <trip id="veh338" type="veh_passenger" depart="247.82" departLane="best" departSpeed="max" from="264961861" to="84830164#2"/>
    <trip id="veh341" type="veh_passenger" depart="250.02" departLane="best" departSpeed="max" from="263590288" to="42071638#1"/>