<?xml version="1.0" encoding="UTF-8"?>
<nodes xmlns:xsi="http://www.w3.org/2001/XMLSchema-instance" xsi:noNamespaceSchemaLocation="http://sumo.dlr.de/xsd/nodes_file.xsd">
   <node id="0_0" x="0.0" y="0.0"  type="traffic_light"/>
   <node id="0_1" x="+500.0" y="0.0"  type="traffic_light"/>


   <node id="1" x="-500.0" y="0.0" type="priority"/>
   <node id="2" x="+0.0" y="+500.0" type="priority"/>
   <node id="3" x="0.0" y="-500.0" type="priority"/>
   <!-- <node id="4" x="0.0" y="+500.0" type="priority"/> -->
   <node id="4" x="+500.0" y="+500.0" type="priority"/>
   <node id="5" x="+1000.0" y="0.0" type="priority"/>
   <node id="6" x="+500.0" y="-500.0" type="priority"/>
   
   <node id="1_b" x="-510.0" y="0.0" type="priority"/>
   <node id="2_b" x="0.0" y="+510.0" type="priority"/>
   <node id="3_b" x="0.0" y="-510.0" type="priority"/>
   <!-- <node id="2_b" x="+510.0" y="0.0" type="priority"/> -->
   <node id="4_b" x="+500.0" y="+510.0" type="priority" />
   <node id="5_b" x="+1010.0" y="0.0" type="priority" />
   <node id="6_b" x="+500.0" y="-500.0" type="priority" />
</nodes>