<?xml version="1.0" encoding="UTF-8"?>

<!-- generated on 2024-03-06 19:11:55 by Eclipse SUMO netgenerate Version 1.19.0
<configuration xmlns:xsi="http://www.w3.org/2001/XMLSchema-instance" xsi:noNamespaceSchemaLocation="http://sumo.dlr.de/xsd/netgenerateConfiguration.xsd">

    <grid_network>
        <grid value="true"/>
        <grid.x-number value="10"/>
        <grid.y-number value="3"/>
        <grid.x-length value="100"/>
        <grid.y-length value="40"/>
    </grid_network>

    <output>
        <output-file value="b_cenary.net.xml"/>
    </output>

    <building_defaults>
        <default.lanenumber value="2"/>
        <default-junction-type value="traffic_light"/>
    </building_defaults>

</configuration>
-->

<net version="1.16" junctionCornerDetail="5" limitTurnSpeed="5.50" xmlns:xsi="http://www.w3.org/2001/XMLSchema-instance" xsi:noNamespaceSchemaLocation="http://sumo.dlr.de/xsd/net_file.xsd">

    <location netOffset="0.00,0.00" convBoundary="0.00,0.00,900.00,80.00" origBoundary="0.00,0.00,900.00,80.00" projParameter="!"/>

    <edge id=":A0_0" function="internal">
        <lane id=":A0_0_0" index="0" speed="8.96" length="18.06" shape="-4.80,6.40 -4.10,1.50 -2.00,-2.00 1.50,-4.10 6.40,-4.80"/>
        <lane id=":A0_0_1" index="1" speed="7.66" length="12.90" shape="-1.60,6.40 -1.10,2.90 0.40,0.40 2.90,-1.10 6.40,-1.60"/>
    </edge>
    <edge id=":A0_2" function="internal">
        <lane id=":A0_2_0" index="0" speed="3.90" length="2.58" shape="6.40,4.80 5.70,4.90 5.20,5.20 4.90,5.70 4.80,6.40"/>
        <lane id=":A0_2_1" index="1" speed="6.08" length="7.74" shape="6.40,1.60 4.30,1.90 2.80,2.80 1.90,4.30 1.60,6.40"/>
    </edge>
    <edge id=":A1_0" function="internal">
        <lane id=":A1_0_0" index="0" speed="13.89" length="20.80" shape="-4.80,50.40 -4.80,29.60"/>
        <lane id=":A1_0_1" index="1" speed="13.89" length="20.80" shape="-1.60,50.40 -1.60,29.60"/>
    </edge>
    <edge id=":A1_2" function="internal">
        <lane id=":A1_2_0" index="0" speed="9.26" length="5.01" shape="-1.60,50.40 -0.89,45.44"/>
    </edge>
    <edge id=":A1_3" function="internal">
        <lane id=":A1_3_0" index="0" speed="3.65" length="1.44" shape="-1.60,50.40 -0.80,49.20"/>
    </edge>
    <edge id=":A1_12" function="internal">
        <lane id=":A1_12_0" index="0" speed="9.26" length="14.34" shape="-0.89,45.44 -0.85,45.15 1.40,41.40 5.15,39.15 10.40,38.40"/>
    </edge>
    <edge id=":A1_13" function="internal">
        <lane id=":A1_13_0" index="0" speed="3.65" length="3.23" shape="-0.80,49.20 0.00,48.80 0.80,49.20 1.60,50.40"/>
    </edge>
    <edge id=":A1_4" function="internal">
        <lane id=":A1_4_0" index="0" speed="6.51" length="9.03" shape="10.40,44.80 7.95,45.15 6.20,46.20 5.15,47.95 4.80,50.40"/>
        <lane id=":A1_4_1" index="1" speed="8.00" length="14.19" shape="10.40,41.60 6.55,42.15 3.80,43.80 2.15,46.55 1.60,50.40"/>
    </edge>
    <edge id=":A1_6" function="internal">
        <lane id=":A1_6_0" index="0" speed="9.26" length="19.35" shape="10.40,41.60 5.15,40.85 1.40,38.60 -0.85,34.85 -1.60,29.60"/>
    </edge>
    <edge id=":A1_7" function="internal">
        <lane id=":A1_7_0" index="0" speed="3.65" length="2.34" shape="10.40,41.60 9.20,40.80 8.80,40.00"/>
    </edge>
    <edge id=":A1_14" function="internal">
        <lane id=":A1_14_0" index="0" speed="3.65" length="2.34" shape="8.80,40.00 9.20,39.20 10.40,38.40"/>
    </edge>
    <edge id=":A1_8" function="internal">
        <lane id=":A1_8_0" index="0" speed="6.51" length="9.03" shape="4.80,29.60 5.15,32.05 6.20,33.80 7.95,34.85 10.40,35.20"/>
    </edge>
    <edge id=":A1_9" function="internal">
        <lane id=":A1_9_0" index="0" speed="13.89" length="20.80" shape="4.80,29.60 4.80,50.40"/>
        <lane id=":A1_9_1" index="1" speed="13.89" length="20.80" shape="1.60,29.60 1.60,50.40"/>
    </edge>
    <edge id=":A1_11" function="internal">
        <lane id=":A1_11_0" index="0" speed="3.65" length="1.44" shape="1.60,29.60 0.80,30.80"/>
    </edge>
    <edge id=":A1_15" function="internal">
        <lane id=":A1_15_0" index="0" speed="3.65" length="3.23" shape="0.80,30.80 0.00,31.20 -0.80,30.80 -1.60,29.60"/>
    </edge>
    <edge id=":A2_0" function="internal">
        <lane id=":A2_0_0" index="0" speed="8.96" length="18.06" shape="6.40,84.80 1.50,84.10 -2.00,82.00 -4.10,78.50 -4.80,73.60"/>
        <lane id=":A2_0_1" index="1" speed="7.66" length="12.90" shape="6.40,81.60 2.90,81.10 0.40,79.60 -1.10,77.10 -1.60,73.60"/>
    </edge>
    <edge id=":A2_2" function="internal">
        <lane id=":A2_2_0" index="0" speed="3.90" length="2.58" shape="4.80,73.60 4.90,74.30 5.20,74.80 5.70,75.10 6.40,75.20"/>
        <lane id=":A2_2_1" index="1" speed="6.08" length="7.74" shape="1.60,73.60 1.90,75.70 2.80,77.20 4.30,78.10 6.40,78.40"/>
    </edge>
    <edge id=":B0_0" function="internal">
        <lane id=":B0_0_0" index="0" speed="6.51" length="9.03" shape="95.20,10.40 94.85,7.95 93.80,6.20 92.05,5.15 89.60,4.80"/>
        <lane id=":B0_0_1" index="1" speed="8.00" length="14.19" shape="98.40,10.40 97.85,6.55 96.20,3.80 93.45,2.15 89.60,1.60"/>
    </edge>
    <edge id=":B0_2" function="internal">
        <lane id=":B0_2_0" index="0" speed="9.26" length="19.35" shape="98.40,10.40 99.15,5.15 101.40,1.40 105.15,-0.85 110.40,-1.60"/>
    </edge>
    <edge id=":B0_3" function="internal">
        <lane id=":B0_3_0" index="0" speed="3.65" length="2.34" shape="98.40,10.40 99.20,9.20 100.00,8.80"/>
    </edge>
    <edge id=":B0_12" function="internal">
        <lane id=":B0_12_0" index="0" speed="3.65" length="2.34" shape="100.00,8.80 100.80,9.20 101.60,10.40"/>
    </edge>
    <edge id=":B0_4" function="internal">
        <lane id=":B0_4_0" index="0" speed="6.51" length="9.03" shape="110.40,4.80 107.95,5.15 106.20,6.20 105.15,7.95 104.80,10.40"/>
    </edge>
    <edge id=":B0_5" function="internal">
        <lane id=":B0_5_0" index="0" speed="13.89" length="20.80" shape="110.40,4.80 89.60,4.80"/>
        <lane id=":B0_5_1" index="1" speed="13.89" length="20.80" shape="110.40,1.60 89.60,1.60"/>
    </edge>
    <edge id=":B0_7" function="internal">
        <lane id=":B0_7_0" index="0" speed="3.65" length="1.44" shape="110.40,1.60 109.20,0.80"/>
    </edge>
    <edge id=":B0_13" function="internal">
        <lane id=":B0_13_0" index="0" speed="3.65" length="3.23" shape="109.20,0.80 108.80,0.00 109.20,-0.80 110.40,-1.60"/>
    </edge>
    <edge id=":B0_8" function="internal">
        <lane id=":B0_8_0" index="0" speed="13.89" length="20.80" shape="89.60,-4.80 110.40,-4.80"/>
        <lane id=":B0_8_1" index="1" speed="13.89" length="20.80" shape="89.60,-1.60 110.40,-1.60"/>
    </edge>
    <edge id=":B0_10" function="internal">
        <lane id=":B0_10_0" index="0" speed="9.26" length="5.01" shape="89.60,-1.60 94.56,-0.89"/>
    </edge>
    <edge id=":B0_11" function="internal">
        <lane id=":B0_11_0" index="0" speed="3.65" length="1.44" shape="89.60,-1.60 90.80,-0.80"/>
    </edge>
    <edge id=":B0_14" function="internal">
        <lane id=":B0_14_0" index="0" speed="9.26" length="14.34" shape="94.56,-0.89 94.85,-0.85 98.60,1.40 100.85,5.15 101.60,10.40"/>
    </edge>
    <edge id=":B0_15" function="internal">
        <lane id=":B0_15_0" index="0" speed="3.65" length="3.23" shape="90.80,-0.80 91.20,0.00 90.80,0.80 89.60,1.60"/>
    </edge>
    <edge id=":B1_0" function="internal">
        <lane id=":B1_0_0" index="0" speed="6.51" length="9.03" shape="95.20,50.40 94.85,47.95 93.80,46.20 92.05,45.15 89.60,44.80"/>
    </edge>
    <edge id=":B1_1" function="internal">
        <lane id=":B1_1_0" index="0" speed="13.89" length="20.80" shape="95.20,50.40 95.20,29.60"/>
        <lane id=":B1_1_1" index="1" speed="13.89" length="20.80" shape="98.40,50.40 98.40,29.60"/>
    </edge>
    <edge id=":B1_3" function="internal">
        <lane id=":B1_3_0" index="0" speed="9.26" length="5.01" shape="98.40,50.40 99.11,45.44"/>
    </edge>
    <edge id=":B1_4" function="internal">
        <lane id=":B1_4_0" index="0" speed="3.65" length="1.44" shape="98.40,50.40 99.20,49.20"/>
    </edge>
    <edge id=":B1_20" function="internal">
        <lane id=":B1_20_0" index="0" speed="9.26" length="14.34" shape="99.11,45.44 99.15,45.15 101.40,41.40 105.15,39.15 110.40,38.40"/>
    </edge>
    <edge id=":B1_21" function="internal">
        <lane id=":B1_21_0" index="0" speed="3.65" length="3.23" shape="99.20,49.20 100.00,48.80 100.80,49.20 101.60,50.40"/>
    </edge>
    <edge id=":B1_5" function="internal">
        <lane id=":B1_5_0" index="0" speed="6.51" length="9.03" shape="110.40,44.80 107.95,45.15 106.20,46.20 105.15,47.95 104.80,50.40"/>
    </edge>
    <edge id=":B1_6" function="internal">
        <lane id=":B1_6_0" index="0" speed="13.89" length="20.80" shape="110.40,44.80 89.60,44.80"/>
        <lane id=":B1_6_1" index="1" speed="13.89" length="20.80" shape="110.40,41.60 89.60,41.60"/>
    </edge>
    <edge id=":B1_8" function="internal">
        <lane id=":B1_8_0" index="0" speed="9.26" length="5.01" shape="110.40,41.60 105.44,40.89"/>
    </edge>
    <edge id=":B1_9" function="internal">
        <lane id=":B1_9_0" index="0" speed="3.65" length="1.44" shape="110.40,41.60 109.20,40.80"/>
    </edge>
    <edge id=":B1_22" function="internal">
        <lane id=":B1_22_0" index="0" speed="9.26" length="14.34" shape="105.44,40.89 105.15,40.85 101.40,38.60 99.15,34.85 98.40,29.60"/>
    </edge>
    <edge id=":B1_23" function="internal">
        <lane id=":B1_23_0" index="0" speed="3.65" length="3.23" shape="109.20,40.80 108.80,40.00 109.20,39.20 110.40,38.40"/>
    </edge>
    <edge id=":B1_10" function="internal">
        <lane id=":B1_10_0" index="0" speed="6.51" length="9.03" shape="104.80,29.60 105.15,32.05 106.20,33.80 107.95,34.85 110.40,35.20"/>
    </edge>
    <edge id=":B1_11" function="internal">
        <lane id=":B1_11_0" index="0" speed="13.89" length="20.80" shape="104.80,29.60 104.80,50.40"/>
        <lane id=":B1_11_1" index="1" speed="13.89" length="20.80" shape="101.60,29.60 101.60,50.40"/>
    </edge>
    <edge id=":B1_13" function="internal">
        <lane id=":B1_13_0" index="0" speed="9.26" length="5.01" shape="101.60,29.60 100.89,34.56"/>
    </edge>
    <edge id=":B1_14" function="internal">
        <lane id=":B1_14_0" index="0" speed="3.65" length="1.44" shape="101.60,29.60 100.80,30.80"/>
    </edge>
    <edge id=":B1_24" function="internal">
        <lane id=":B1_24_0" index="0" speed="9.26" length="14.34" shape="100.89,34.56 100.85,34.85 98.60,38.60 94.85,40.85 89.60,41.60"/>
    </edge>
    <edge id=":B1_25" function="internal">
        <lane id=":B1_25_0" index="0" speed="3.65" length="3.23" shape="100.80,30.80 100.00,31.20 99.20,30.80 98.40,29.60"/>
    </edge>
    <edge id=":B1_15" function="internal">
        <lane id=":B1_15_0" index="0" speed="6.51" length="9.03" shape="89.60,35.20 92.05,34.85 93.80,33.80 94.85,32.05 95.20,29.60"/>
    </edge>
    <edge id=":B1_16" function="internal">
        <lane id=":B1_16_0" index="0" speed="13.89" length="20.80" shape="89.60,35.20 110.40,35.20"/>
        <lane id=":B1_16_1" index="1" speed="13.89" length="20.80" shape="89.60,38.40 110.40,38.40"/>
    </edge>
    <edge id=":B1_18" function="internal">
        <lane id=":B1_18_0" index="0" speed="9.26" length="5.01" shape="89.60,38.40 94.56,39.11"/>
    </edge>
    <edge id=":B1_19" function="internal">
        <lane id=":B1_19_0" index="0" speed="3.65" length="1.44" shape="89.60,38.40 90.80,39.20"/>
    </edge>
    <edge id=":B1_26" function="internal">
        <lane id=":B1_26_0" index="0" speed="9.26" length="14.34" shape="94.56,39.11 94.85,39.15 98.60,41.40 100.85,45.15 101.60,50.40"/>
    </edge>
    <edge id=":B1_27" function="internal">
        <lane id=":B1_27_0" index="0" speed="3.65" length="3.23" shape="90.80,39.20 91.20,40.00 90.80,40.80 89.60,41.60"/>
    </edge>
    <edge id=":B2_0" function="internal">
        <lane id=":B2_0_0" index="0" speed="13.89" length="20.80" shape="110.40,84.80 89.60,84.80"/>
        <lane id=":B2_0_1" index="1" speed="13.89" length="20.80" shape="110.40,81.60 89.60,81.60"/>
    </edge>
    <edge id=":B2_2" function="internal">
        <lane id=":B2_2_0" index="0" speed="9.26" length="5.01" shape="110.40,81.60 105.44,80.89"/>
    </edge>
    <edge id=":B2_3" function="internal">
        <lane id=":B2_3_0" index="0" speed="3.65" length="1.44" shape="110.40,81.60 109.20,80.80"/>
    </edge>
    <edge id=":B2_12" function="internal">
        <lane id=":B2_12_0" index="0" speed="9.26" length="14.34" shape="105.44,80.89 105.15,80.85 101.40,78.60 99.15,74.85 98.40,69.60"/>
    </edge>
    <edge id=":B2_13" function="internal">
        <lane id=":B2_13_0" index="0" speed="3.65" length="3.23" shape="109.20,80.80 108.80,80.00 109.20,79.20 110.40,78.40"/>
    </edge>
    <edge id=":B2_4" function="internal">
        <lane id=":B2_4_0" index="0" speed="6.51" length="9.03" shape="104.80,69.60 105.15,72.05 106.20,73.80 107.95,74.85 110.40,75.20"/>
        <lane id=":B2_4_1" index="1" speed="8.00" length="14.19" shape="101.60,69.60 102.15,73.45 103.80,76.20 106.55,77.85 110.40,78.40"/>
    </edge>
    <edge id=":B2_6" function="internal">
        <lane id=":B2_6_0" index="0" speed="9.26" length="19.35" shape="101.60,69.60 100.85,74.85 98.60,78.60 94.85,80.85 89.60,81.60"/>
    </edge>
    <edge id=":B2_7" function="internal">
        <lane id=":B2_7_0" index="0" speed="3.65" length="2.34" shape="101.60,69.60 100.80,70.80 100.00,71.20"/>
    </edge>
    <edge id=":B2_14" function="internal">
        <lane id=":B2_14_0" index="0" speed="3.65" length="2.34" shape="100.00,71.20 99.20,70.80 98.40,69.60"/>
    </edge>
    <edge id=":B2_8" function="internal">
        <lane id=":B2_8_0" index="0" speed="6.51" length="9.03" shape="89.60,75.20 92.05,74.85 93.80,73.80 94.85,72.05 95.20,69.60"/>
    </edge>
    <edge id=":B2_9" function="internal">
        <lane id=":B2_9_0" index="0" speed="13.89" length="20.80" shape="89.60,75.20 110.40,75.20"/>
        <lane id=":B2_9_1" index="1" speed="13.89" length="20.80" shape="89.60,78.40 110.40,78.40"/>
    </edge>
    <edge id=":B2_11" function="internal">
        <lane id=":B2_11_0" index="0" speed="3.65" length="1.44" shape="89.60,78.40 90.80,79.20"/>
    </edge>
    <edge id=":B2_15" function="internal">
        <lane id=":B2_15_0" index="0" speed="3.65" length="3.23" shape="90.80,79.20 91.20,80.00 90.80,80.80 89.60,81.60"/>
    </edge>
    <edge id=":C0_0" function="internal">
        <lane id=":C0_0_0" index="0" speed="6.51" length="9.03" shape="195.20,10.40 194.85,7.95 193.80,6.20 192.05,5.15 189.60,4.80"/>
        <lane id=":C0_0_1" index="1" speed="8.00" length="14.19" shape="198.40,10.40 197.85,6.55 196.20,3.80 193.45,2.15 189.60,1.60"/>
    </edge>
    <edge id=":C0_2" function="internal">
        <lane id=":C0_2_0" index="0" speed="9.26" length="19.35" shape="198.40,10.40 199.15,5.15 201.40,1.40 205.15,-0.85 210.40,-1.60"/>
    </edge>
    <edge id=":C0_3" function="internal">
        <lane id=":C0_3_0" index="0" speed="3.65" length="2.34" shape="198.40,10.40 199.20,9.20 200.00,8.80"/>
    </edge>
    <edge id=":C0_12" function="internal">
        <lane id=":C0_12_0" index="0" speed="3.65" length="2.34" shape="200.00,8.80 200.80,9.20 201.60,10.40"/>
    </edge>
    <edge id=":C0_4" function="internal">
        <lane id=":C0_4_0" index="0" speed="6.51" length="9.03" shape="210.40,4.80 207.95,5.15 206.20,6.20 205.15,7.95 204.80,10.40"/>
    </edge>
    <edge id=":C0_5" function="internal">
        <lane id=":C0_5_0" index="0" speed="13.89" length="20.80" shape="210.40,4.80 189.60,4.80"/>
        <lane id=":C0_5_1" index="1" speed="13.89" length="20.80" shape="210.40,1.60 189.60,1.60"/>
    </edge>
    <edge id=":C0_7" function="internal">
        <lane id=":C0_7_0" index="0" speed="3.65" length="1.44" shape="210.40,1.60 209.20,0.80"/>
    </edge>
    <edge id=":C0_13" function="internal">
        <lane id=":C0_13_0" index="0" speed="3.65" length="3.23" shape="209.20,0.80 208.80,0.00 209.20,-0.80 210.40,-1.60"/>
    </edge>
    <edge id=":C0_8" function="internal">
        <lane id=":C0_8_0" index="0" speed="13.89" length="20.80" shape="189.60,-4.80 210.40,-4.80"/>
        <lane id=":C0_8_1" index="1" speed="13.89" length="20.80" shape="189.60,-1.60 210.40,-1.60"/>
    </edge>
    <edge id=":C0_10" function="internal">
        <lane id=":C0_10_0" index="0" speed="9.26" length="5.01" shape="189.60,-1.60 194.56,-0.89"/>
    </edge>
    <edge id=":C0_11" function="internal">
        <lane id=":C0_11_0" index="0" speed="3.65" length="1.44" shape="189.60,-1.60 190.80,-0.80"/>
    </edge>
    <edge id=":C0_14" function="internal">
        <lane id=":C0_14_0" index="0" speed="9.26" length="14.34" shape="194.56,-0.89 194.85,-0.85 198.60,1.40 200.85,5.15 201.60,10.40"/>
    </edge>
    <edge id=":C0_15" function="internal">
        <lane id=":C0_15_0" index="0" speed="3.65" length="3.23" shape="190.80,-0.80 191.20,0.00 190.80,0.80 189.60,1.60"/>
    </edge>
    <edge id=":C1_0" function="internal">
        <lane id=":C1_0_0" index="0" speed="6.51" length="9.03" shape="195.20,50.40 194.85,47.95 193.80,46.20 192.05,45.15 189.60,44.80"/>
    </edge>
    <edge id=":C1_1" function="internal">
        <lane id=":C1_1_0" index="0" speed="13.89" length="20.80" shape="195.20,50.40 195.20,29.60"/>
        <lane id=":C1_1_1" index="1" speed="13.89" length="20.80" shape="198.40,50.40 198.40,29.60"/>
    </edge>
    <edge id=":C1_3" function="internal">
        <lane id=":C1_3_0" index="0" speed="9.26" length="5.01" shape="198.40,50.40 199.11,45.44"/>
    </edge>
    <edge id=":C1_4" function="internal">
        <lane id=":C1_4_0" index="0" speed="3.65" length="1.44" shape="198.40,50.40 199.20,49.20"/>
    </edge>
    <edge id=":C1_20" function="internal">
        <lane id=":C1_20_0" index="0" speed="9.26" length="14.34" shape="199.11,45.44 199.15,45.15 201.40,41.40 205.15,39.15 210.40,38.40"/>
    </edge>
    <edge id=":C1_21" function="internal">
        <lane id=":C1_21_0" index="0" speed="3.65" length="3.23" shape="199.20,49.20 200.00,48.80 200.80,49.20 201.60,50.40"/>
    </edge>
    <edge id=":C1_5" function="internal">
        <lane id=":C1_5_0" index="0" speed="6.51" length="9.03" shape="210.40,44.80 207.95,45.15 206.20,46.20 205.15,47.95 204.80,50.40"/>
    </edge>
    <edge id=":C1_6" function="internal">
        <lane id=":C1_6_0" index="0" speed="13.89" length="20.80" shape="210.40,44.80 189.60,44.80"/>
        <lane id=":C1_6_1" index="1" speed="13.89" length="20.80" shape="210.40,41.60 189.60,41.60"/>
    </edge>
    <edge id=":C1_8" function="internal">
        <lane id=":C1_8_0" index="0" speed="9.26" length="5.01" shape="210.40,41.60 205.44,40.89"/>
    </edge>
    <edge id=":C1_9" function="internal">
        <lane id=":C1_9_0" index="0" speed="3.65" length="1.44" shape="210.40,41.60 209.20,40.80"/>
    </edge>
    <edge id=":C1_22" function="internal">
        <lane id=":C1_22_0" index="0" speed="9.26" length="14.34" shape="205.44,40.89 205.15,40.85 201.40,38.60 199.15,34.85 198.40,29.60"/>
    </edge>
    <edge id=":C1_23" function="internal">
        <lane id=":C1_23_0" index="0" speed="3.65" length="3.23" shape="209.20,40.80 208.80,40.00 209.20,39.20 210.40,38.40"/>
    </edge>
    <edge id=":C1_10" function="internal">
        <lane id=":C1_10_0" index="0" speed="6.51" length="9.03" shape="204.80,29.60 205.15,32.05 206.20,33.80 207.95,34.85 210.40,35.20"/>
    </edge>
    <edge id=":C1_11" function="internal">
        <lane id=":C1_11_0" index="0" speed="13.89" length="20.80" shape="204.80,29.60 204.80,50.40"/>
        <lane id=":C1_11_1" index="1" speed="13.89" length="20.80" shape="201.60,29.60 201.60,50.40"/>
    </edge>
    <edge id=":C1_13" function="internal">
        <lane id=":C1_13_0" index="0" speed="9.26" length="5.01" shape="201.60,29.60 200.89,34.56"/>
    </edge>
    <edge id=":C1_14" function="internal">
        <lane id=":C1_14_0" index="0" speed="3.65" length="1.44" shape="201.60,29.60 200.80,30.80"/>
    </edge>
    <edge id=":C1_24" function="internal">
        <lane id=":C1_24_0" index="0" speed="9.26" length="14.34" shape="200.89,34.56 200.85,34.85 198.60,38.60 194.85,40.85 189.60,41.60"/>
    </edge>
    <edge id=":C1_25" function="internal">
        <lane id=":C1_25_0" index="0" speed="3.65" length="3.23" shape="200.80,30.80 200.00,31.20 199.20,30.80 198.40,29.60"/>
    </edge>
    <edge id=":C1_15" function="internal">
        <lane id=":C1_15_0" index="0" speed="6.51" length="9.03" shape="189.60,35.20 192.05,34.85 193.80,33.80 194.85,32.05 195.20,29.60"/>
    </edge>
    <edge id=":C1_16" function="internal">
        <lane id=":C1_16_0" index="0" speed="13.89" length="20.80" shape="189.60,35.20 210.40,35.20"/>
        <lane id=":C1_16_1" index="1" speed="13.89" length="20.80" shape="189.60,38.40 210.40,38.40"/>
    </edge>
    <edge id=":C1_18" function="internal">
        <lane id=":C1_18_0" index="0" speed="9.26" length="5.01" shape="189.60,38.40 194.56,39.11"/>
    </edge>
    <edge id=":C1_19" function="internal">
        <lane id=":C1_19_0" index="0" speed="3.65" length="1.44" shape="189.60,38.40 190.80,39.20"/>
    </edge>
    <edge id=":C1_26" function="internal">
        <lane id=":C1_26_0" index="0" speed="9.26" length="14.34" shape="194.56,39.11 194.85,39.15 198.60,41.40 200.85,45.15 201.60,50.40"/>
    </edge>
    <edge id=":C1_27" function="internal">
        <lane id=":C1_27_0" index="0" speed="3.65" length="3.23" shape="190.80,39.20 191.20,40.00 190.80,40.80 189.60,41.60"/>
    </edge>
    <edge id=":C2_0" function="internal">
        <lane id=":C2_0_0" index="0" speed="13.89" length="20.80" shape="210.40,84.80 189.60,84.80"/>
        <lane id=":C2_0_1" index="1" speed="13.89" length="20.80" shape="210.40,81.60 189.60,81.60"/>
    </edge>
    <edge id=":C2_2" function="internal">
        <lane id=":C2_2_0" index="0" speed="9.26" length="5.01" shape="210.40,81.60 205.44,80.89"/>
    </edge>
    <edge id=":C2_3" function="internal">
        <lane id=":C2_3_0" index="0" speed="3.65" length="1.44" shape="210.40,81.60 209.20,80.80"/>
    </edge>
    <edge id=":C2_12" function="internal">
        <lane id=":C2_12_0" index="0" speed="9.26" length="14.34" shape="205.44,80.89 205.15,80.85 201.40,78.60 199.15,74.85 198.40,69.60"/>
    </edge>
    <edge id=":C2_13" function="internal">
        <lane id=":C2_13_0" index="0" speed="3.65" length="3.23" shape="209.20,80.80 208.80,80.00 209.20,79.20 210.40,78.40"/>
    </edge>
    <edge id=":C2_4" function="internal">
        <lane id=":C2_4_0" index="0" speed="6.51" length="9.03" shape="204.80,69.60 205.15,72.05 206.20,73.80 207.95,74.85 210.40,75.20"/>
        <lane id=":C2_4_1" index="1" speed="8.00" length="14.19" shape="201.60,69.60 202.15,73.45 203.80,76.20 206.55,77.85 210.40,78.40"/>
    </edge>
    <edge id=":C2_6" function="internal">
        <lane id=":C2_6_0" index="0" speed="9.26" length="19.35" shape="201.60,69.60 200.85,74.85 198.60,78.60 194.85,80.85 189.60,81.60"/>
    </edge>
    <edge id=":C2_7" function="internal">
        <lane id=":C2_7_0" index="0" speed="3.65" length="2.34" shape="201.60,69.60 200.80,70.80 200.00,71.20"/>
    </edge>
    <edge id=":C2_14" function="internal">
        <lane id=":C2_14_0" index="0" speed="3.65" length="2.34" shape="200.00,71.20 199.20,70.80 198.40,69.60"/>
    </edge>
    <edge id=":C2_8" function="internal">
        <lane id=":C2_8_0" index="0" speed="6.51" length="9.03" shape="189.60,75.20 192.05,74.85 193.80,73.80 194.85,72.05 195.20,69.60"/>
    </edge>
    <edge id=":C2_9" function="internal">
        <lane id=":C2_9_0" index="0" speed="13.89" length="20.80" shape="189.60,75.20 210.40,75.20"/>
        <lane id=":C2_9_1" index="1" speed="13.89" length="20.80" shape="189.60,78.40 210.40,78.40"/>
    </edge>
    <edge id=":C2_11" function="internal">
        <lane id=":C2_11_0" index="0" speed="3.65" length="1.44" shape="189.60,78.40 190.80,79.20"/>
    </edge>
    <edge id=":C2_15" function="internal">
        <lane id=":C2_15_0" index="0" speed="3.65" length="3.23" shape="190.80,79.20 191.20,80.00 190.80,80.80 189.60,81.60"/>
    </edge>
    <edge id=":D0_0" function="internal">
        <lane id=":D0_0_0" index="0" speed="6.51" length="9.03" shape="295.20,10.40 294.85,7.95 293.80,6.20 292.05,5.15 289.60,4.80"/>
        <lane id=":D0_0_1" index="1" speed="8.00" length="14.19" shape="298.40,10.40 297.85,6.55 296.20,3.80 293.45,2.15 289.60,1.60"/>
    </edge>
    <edge id=":D0_2" function="internal">
        <lane id=":D0_2_0" index="0" speed="9.26" length="19.35" shape="298.40,10.40 299.15,5.15 301.40,1.40 305.15,-0.85 310.40,-1.60"/>
    </edge>
    <edge id=":D0_3" function="internal">
        <lane id=":D0_3_0" index="0" speed="3.65" length="2.34" shape="298.40,10.40 299.20,9.20 300.00,8.80"/>
    </edge>
    <edge id=":D0_12" function="internal">
        <lane id=":D0_12_0" index="0" speed="3.65" length="2.34" shape="300.00,8.80 300.80,9.20 301.60,10.40"/>
    </edge>
    <edge id=":D0_4" function="internal">
        <lane id=":D0_4_0" index="0" speed="6.51" length="9.03" shape="310.40,4.80 307.95,5.15 306.20,6.20 305.15,7.95 304.80,10.40"/>
    </edge>
    <edge id=":D0_5" function="internal">
        <lane id=":D0_5_0" index="0" speed="13.89" length="20.80" shape="310.40,4.80 289.60,4.80"/>
        <lane id=":D0_5_1" index="1" speed="13.89" length="20.80" shape="310.40,1.60 289.60,1.60"/>
    </edge>
    <edge id=":D0_7" function="internal">
        <lane id=":D0_7_0" index="0" speed="3.65" length="1.44" shape="310.40,1.60 309.20,0.80"/>
    </edge>
    <edge id=":D0_13" function="internal">
        <lane id=":D0_13_0" index="0" speed="3.65" length="3.23" shape="309.20,0.80 308.80,0.00 309.20,-0.80 310.40,-1.60"/>
    </edge>
    <edge id=":D0_8" function="internal">
        <lane id=":D0_8_0" index="0" speed="13.89" length="20.80" shape="289.60,-4.80 310.40,-4.80"/>
        <lane id=":D0_8_1" index="1" speed="13.89" length="20.80" shape="289.60,-1.60 310.40,-1.60"/>
    </edge>
    <edge id=":D0_10" function="internal">
        <lane id=":D0_10_0" index="0" speed="9.26" length="5.01" shape="289.60,-1.60 294.56,-0.89"/>
    </edge>
    <edge id=":D0_11" function="internal">
        <lane id=":D0_11_0" index="0" speed="3.65" length="1.44" shape="289.60,-1.60 290.80,-0.80"/>
    </edge>
    <edge id=":D0_14" function="internal">
        <lane id=":D0_14_0" index="0" speed="9.26" length="14.34" shape="294.56,-0.89 294.85,-0.85 298.60,1.40 300.85,5.15 301.60,10.40"/>
    </edge>
    <edge id=":D0_15" function="internal">
        <lane id=":D0_15_0" index="0" speed="3.65" length="3.23" shape="290.80,-0.80 291.20,0.00 290.80,0.80 289.60,1.60"/>
    </edge>
    <edge id=":D1_0" function="internal">
        <lane id=":D1_0_0" index="0" speed="6.51" length="9.03" shape="295.20,50.40 294.85,47.95 293.80,46.20 292.05,45.15 289.60,44.80"/>
    </edge>
    <edge id=":D1_1" function="internal">
        <lane id=":D1_1_0" index="0" speed="13.89" length="20.80" shape="295.20,50.40 295.20,29.60"/>
        <lane id=":D1_1_1" index="1" speed="13.89" length="20.80" shape="298.40,50.40 298.40,29.60"/>
    </edge>
    <edge id=":D1_3" function="internal">
        <lane id=":D1_3_0" index="0" speed="9.26" length="5.01" shape="298.40,50.40 299.11,45.44"/>
    </edge>
    <edge id=":D1_4" function="internal">
        <lane id=":D1_4_0" index="0" speed="3.65" length="1.44" shape="298.40,50.40 299.20,49.20"/>
    </edge>
    <edge id=":D1_20" function="internal">
        <lane id=":D1_20_0" index="0" speed="9.26" length="14.34" shape="299.11,45.44 299.15,45.15 301.40,41.40 305.15,39.15 310.40,38.40"/>
    </edge>
    <edge id=":D1_21" function="internal">
        <lane id=":D1_21_0" index="0" speed="3.65" length="3.23" shape="299.20,49.20 300.00,48.80 300.80,49.20 301.60,50.40"/>
    </edge>
    <edge id=":D1_5" function="internal">
        <lane id=":D1_5_0" index="0" speed="6.51" length="9.03" shape="310.40,44.80 307.95,45.15 306.20,46.20 305.15,47.95 304.80,50.40"/>
    </edge>
    <edge id=":D1_6" function="internal">
        <lane id=":D1_6_0" index="0" speed="13.89" length="20.80" shape="310.40,44.80 289.60,44.80"/>
        <lane id=":D1_6_1" index="1" speed="13.89" length="20.80" shape="310.40,41.60 289.60,41.60"/>
    </edge>
    <edge id=":D1_8" function="internal">
        <lane id=":D1_8_0" index="0" speed="9.26" length="5.01" shape="310.40,41.60 305.44,40.89"/>
    </edge>
    <edge id=":D1_9" function="internal">
        <lane id=":D1_9_0" index="0" speed="3.65" length="1.44" shape="310.40,41.60 309.20,40.80"/>
    </edge>
    <edge id=":D1_22" function="internal">
        <lane id=":D1_22_0" index="0" speed="9.26" length="14.34" shape="305.44,40.89 305.15,40.85 301.40,38.60 299.15,34.85 298.40,29.60"/>
    </edge>
    <edge id=":D1_23" function="internal">
        <lane id=":D1_23_0" index="0" speed="3.65" length="3.23" shape="309.20,40.80 308.80,40.00 309.20,39.20 310.40,38.40"/>
    </edge>
    <edge id=":D1_10" function="internal">
        <lane id=":D1_10_0" index="0" speed="6.51" length="9.03" shape="304.80,29.60 305.15,32.05 306.20,33.80 307.95,34.85 310.40,35.20"/>
    </edge>
    <edge id=":D1_11" function="internal">
        <lane id=":D1_11_0" index="0" speed="13.89" length="20.80" shape="304.80,29.60 304.80,50.40"/>
        <lane id=":D1_11_1" index="1" speed="13.89" length="20.80" shape="301.60,29.60 301.60,50.40"/>
    </edge>