<?xml version="1.0" encoding="UTF-8"?>

<!-- generated on 2024-02-10 18:23:22 by Eclipse SUMO duarouter Version 1.19.0
<configuration xmlns:xsi="http://www.w3.org/2001/XMLSchema-instance" xsi:noNamespaceSchemaLocation="http://sumo.dlr.de/xsd/duarouterConfiguration.xsd">

    <input>
        <net-file value="my_sumo_net.net.xml"/>
        <route-files value="odtrips.xml"/>
    </input>

    <output>
        <output-file value="duarouter.rou.xml"/>
    </output>

</configuration>
-->

<routes xmlns:xsi="http://www.w3.org/2001/XMLSchema-instance" xsi:noNamespaceSchemaLocation="http://sumo.dlr.de/xsd/routes_file.xsd">
    <vehicle id="0.0" depart="0.00">
        <route edges="310962293#4 916002836 916002837#0 916002837#1 14481555#1 14481555#3 14481555#4 14481555#5 14481555#6 920983079 920983078#1 920983078#2 14484966#0 14484966#1 915219752 466547795 915219751#0 915219751#1 23597853 -27937907#1 -27937907#0 194736921 27937925#3 27937925#4 27937925#5 27937925#6 27937925#7 915203517 -43341966#2 -43341966#1 -140908238#4 -140908238#3 -140908238#2 -140908238#1 140908235#0 -140908235#0"/>
    </vehicle>
    <vehicle id="10.0" depart="0.00">
        <route edges="778204605#5 225757631#0 225757631#1 917578479 37994419#1 917578481 -778204605#5 -778204605#4 -778204605#3 -778204605#2 -778204605#1 -778204605#0 778204604#1 32531939#5 32531939#6 32531939#1 264141747 -264689643 917865768 917865770#3 917865770#4 917865767 -32346079#8 -221891977#1 -221891977#0 -358563908#1 -358563908#0 221891978 917466829 917466828 208463343 919238233#1 919238233#2 919238232 919238230#0 43334483#0 43334483#1 43334483#2"/>
    </vehicle>
    <vehicle id="11.0" depart="0.00">
        <route edges="14467384#4 14467384#5 897507452 264957569#1 264957569#2 264957569#3 264957569#4 14467389#3 14467389#4 14467389#5 43375166#0 43375166#1 43375166#2 43375166#3 43375166#4 43375166#5 264957600 264957568#0 264957568#1 264957568#2 264957568#3 264957568#4 264957568#5 264957568#6 28060718#1 28060718#2 28060718#3 23597833#0 264957567#0 264957567#1 264957567#2 264957567#3 264957567#4 264957601 264957566 264961861#0 264961861#1 915203520 263590261#0 263590261#1 263590261#2 263590267#0 263590267#1 263590267#2 263590302#0 263590302#1 263590302#2 915623290#0 915623290#1 915623290#2 915623290#3 915623290#4 915623290#5 915623290#6 915623290#7 -915509550 -385983526#2 -385983526#1 -385983526#0 391229792 781678250#1 781678250#2 781678250#3 466547798#0 466547798#1 466547798#2 466547798#3 208463809#1 208463809#2 208463809#3 208463809#4 208463809#5 917546852#0 917546852#3 917546848 917546849 917546850 917546851 773795642#0 -773795642#0"/>
    </vehicle>
    <vehicle id="13.0" depart="0.00">
        <route edges="-142018804#4 -142018804#3 -142018804#2 -142018804#1 -142018804#0 916316782 -43334491#3 -43334491#2 916313774 43334481#2 43334481#3 43334481#4 916313779 43334488#0 43334488#1 550127706 14484971#4 14484971#5 14484971#6 14484968#0 14484968#1 14484968#2 14484968#3 14484968#4 14484968#5 14484968#6 14484968#7 14484968#8 14484968#9 262067984#2 262067984#3 262067984#6 262067984#7 262067984#8 917554883#0 917554883#1 917554882#0 917554882#1 917554881#0 917554881#1 917557818#0 183462739#1 222071932#3 222071932#4 222071932#5 781678259 183462743#0 183462743#1 183462743#3 183462743#4 183462743#5 778204602 32531939#1 32531939#2 32531939#3 37994405#0 778204605#0 778204605#1 778204605#2 778204605#3 778204605#4 778204605#5 225757631#0 225757631#1 917578478 262946408#0 262946408#1 262946408#2 262946408#3 262946408#4 -262946408#4 -262946408#3"/>
    </vehicle>
    <vehicle id="14.0" depart="0.00">
        <route edges="915139687 915139689#1 28060718#3 23597833#0 264957567#0 264957567#1 264957567#2 264957567#3 264957567#4 264961860#1 264961860#2"/>
    </vehicle>
    <vehicle id="15.0" depart="0.00">
        <route edges="781678260 222071932#1 781662392#0 917557818#2 917557817 183462751 917549768#1 917549768#2 917549768#3 917549767 917539229#0 917539229#1 917539229#2 183462732 917470917 782553845 429133454#0 429133454#1 429133454#3 917475285 466433099#1 466433101#0 466433101#1 466433101#2 466433101#3 466433101#4 466433101#5 466433101#6 262067962#0 262067962#1 429133456#1 262067957 920983081 920983080 310962293#1 310962293#2 310962293#4 916002836 916002837#0 916002837#1 263590278#0 263590278#1 263590278#2 263590278#3 263590269#0 263590269#1 263590260 915106308 263590295#1 263590295#2 915106307#0 261285916#0 261285916#2 915139687 915139689#1 28060718#3 28060718#4 43376167 43376164#4 43376164#5 43376164#1 43376165#0 43376165#1 43376165#2 43376165#5 43376165#6 43376165#7 43376165#8 43376165#9 43376165#10 43376165#11 43376165#12"/>
    </vehicle>
    <vehicle id="16.0" depart="0.00">
        <route edges="262068624 915612318#1 915612318#2 262070168 915615577 915209393 915209394#0 915209394#1 915209390 915209389 696899461#0 696899461#1 696899459 696899458#0 915214777#0 915214777#1 14484868#0 14484868#1 285245824#0 285245824#1 100638390 100638378#1 100638378#3 100638378#4 100648328#1 100648328#4 100648338#1 100648338#3 100648338#4 1155184727#0 261246454#1 261246454#2 261246454#3 261246454#4 261246454#5 -916030751#1 -916030751#0 -916030752#2 -916030752#1 -916030752#0 898466117 100609303#5 100609303#6 100609303#7 898466119 -918408889#4 -918408889#3 -918408889#1 918408889#1"/>
    </vehicle>
    <vehicle id="17.0" depart="0.00">
        <route edges="14481694 160944272 285256040 329050882#0 915101542#1 915101541 263590270#0 263590270#1 263590270#2 263590278#0 263590278#1 263590278#2 263590278#3 263590269#0 263590269#1 263590260 915106308 263590295#1 263590295#2 915106307#0 915106307#2 915106306 915157956 263590296#0 263590296#1 263590296#2 263590296#3 263590296#4 263590296#5 263590296#6 263590296#7 915111800#0 263590329#0 263590329#2 245345038 43376676#4 43376676#5 263590320 424332564 782768860 782768859 222072051 43341971#0 43341971#1 43341971#2 263590273#0 263590273#1 263590273#2 263590273#3 263590273#4 263590273#5 263590273#6"/>
    </vehicle>
    <vehicle id="18.0" depart="0.00">
        <route edges="896909183 -142017073#1 -142017073#0 -142016586#0 965742369 965742370#3 965742370#4 965742370#5 965742366 965742367 915628661 43334447#3 43334447#4 43334447#5 915628659#0 915628659#1 915628659#2 915628657#3 915628657#4 915628657#5 915630089#0 915630089#1 915630089#3 43334446#5 915631469 43341966#0 43341966#1 43341966#2 915203516 27937925#1 194736920 27937907#0"/>
    </vehicle>
    <vehicle id="2.0" depart="0.00">
        <route edges="43376165#7 43376165#8 43376165#9 43376165#10 43376165#11 43376165#12 43376165#13 43376165#14 43376165#15 43376165#16 43376165#17 43376165#18 43376165#20 -43375167 14467389#2 14467389#3 14467389#4 14467389#5 43375166#0 43375166#1 43375166#2 43375166#3 43375166#4 43375166#5 264957600 264957568#0 264957568#1 264957568#2 264957568#3 264957568#4 264957568#5 264957568#6 28060718#1 28060718#2 28060718#3 23597833#0 264957567#0 264957567#1 264957567#2 264957567#3 264957567#4 264957601 264957566 264957598 466547793#0 466547793#1 466547793#2 466547793#3 466547793#4 466547793#5 466547793#6 466547793#7 466547793#8 466547793#9 466547790#2 264961857#0 264961857#1 264961857#2 264961857#3 264961857#4 264961857#5 278444274 206679952#1 41648435#0 41648435#1 41648435#2 285250679#0 285250679#1 285250679#2 285250679#3 285250679#4 285250679#5 285250600 42071638#0 42071638#1 285251775#0 285251775#1 285251775#2 285251775#3 230443580#0 230443580#1 230443580#2 1155184702 285246976#0 916302733 261412325#0 916368332 14481585 916368331#0 916368331#1 264910409#4 264910412 261412333#1 261412333#2 261412333#3 1155184701 264910402#0 264910402#1 264910402#2 118979180#0 118979180#1 918856196#0 918856196#1 118979179 39447908#1 285256978#0 285256978#1 41647725 -139785627#2 39447900#0 39447900#1"/>
    </vehicle>
    <vehicle id="3.0" depart="0.00">
        <route edges="915623290#3 915623290#4 915623290#5 916000554 681381929 245337296#0 245337296#1 245337296#2 245337296#4 245337296#5 245337296#6 23597852#6 310962293#4 916002836 245337293#0 245337293#1 245337293#2 245337293#3 245337293#4 409341885#1 915101543 263590249 23597846#0 23597846#1 23597846#2 23597846#3 23597846#4 23597846#5 23597846#6 -23597846#6 -23597846#5 -23597846#4 -23597846#3 -23597846#2"/>
    </vehicle>
    <vehicle id="4.0" depart="0.00">
        <route edges="183462755#6 183462755#7 917539228 917549768#0 917549768#1 917549768#2 917549768#3 917549767 917539229#0 917539229#1 917539229#2 183462732 917470917 782553845 429133454#0 429133454#1 429133454#3 917475285 466433099#1 466433101#0 466433101#1 466433101#2 466433101#3 466433101#4 466433101#5 466433101#6 262067962#0 262067962#1 429133456#1 262067957 920983078#2 14484966#0 14484966#1 915219752 466547795 915219751#0 915219751#1 23597853 -27937907#1 -27937907#0 194736921 27937925#3 27937925#4 27937925#5 27937925#6 27937925#7 915203517 -43341966#2 -43341966#1 -43341966#0 915631468 43334446#1 43334446#2 43334446#3 915631467 915628658#1 915628658#2 915628657#7 915628657#8 915628657#1 915628657#2 915628657#3 915630091 140908903#0 -140908903#0"/>
    </vehicle>
    <vehicle id="5.0" depart="0.00">
        <route edges="100609295#4 100609295#5 262072722 279000036#0 279000036#1 100609307 208463813#4 916030746 917549769 917475284#0 917475284#1 917475283 781678250#0 781678250#1 466433106 -555813339#7 -555813339#6 -555813339#5 -555813339#4 -555813339#3 -555813339#2 -555813339#1 -555813339#0 466433099#1 466433101#0 466433101#1 466433101#2 466433101#3 466433101#4 466433101#5 466433101#6 262067962#0 14484930 14484931 915509553 79127596 915588441 915506471#0 915506471#1 915588440 915506470 915588439 249454646"/>
    </vehicle>
    <vehicle id="6.0" depart="0.00">
        <route edges="-124314974#5 124314974#5 550127706 14484971#4 14484971#5 14484971#6 14484968#0 14484968#1 14484968#2 14484968#3 14484968#4 14484968#5 14484968#6 14484968#7 14484968#8 14484968#9 262067984#2 262067984#3 262067984#6 262067984#7 262067984#8 917554883#0 917554883#1 14481579 183462758 183462761#0 183462761#2 183462761#3 183462761#4 183462761#5 183462761#6 224751029#0 224751029#1 100609292 279000497#0 279000497#1 100609286 100609303#7 100609303#0 100609303#1 100609303#2 100609303#3 100609303#4 100609303#5 100609305"/>
    </vehicle>
    <vehicle id="7.0" depart="0.00">
        <route edges="32532534#0 32532534#1 32532534#2 32532534#3 32532534#4 32532534#5 32532534#6 262946407 124696733#1 124696733#2 124696733#3 124696733#4 124696733#5 32532588 262946287 778197934 124698643#3 124698643#4 124698643#5 124698643#6 124698643#7 124698645 917524601 183462748#0 183462748#1 183462748#2-AddedOnRampEdge 183462748#2 183462748#3 183462748#4 329050883#5 183474584 183462755#1 183462755#2 183462755#3 183462755#4 183462755#5 183462755#6 183462755#7 917539228 917549768#0 917549768#1 917549768#2 917549768#3 917549767 917539229#0 917539229#1 917539229#2 183462732 917470917 782553845 429133454#0 429133454#1 429133454#3 917475285 466433099#1 466433101#0 466433101#1 466433101#2 466433101#3 466433101#4 466433101#5 466433101#6 262067962#0 262067962#1 429133456#1 262067957 920983078#2 14484966#0 14484966#1 915219752 466547795 915219751#0 915219751#1 23597853 -27937907#1 -27937907#0 194736921 27937925#3 27937925#4 27937925#5 43334445#0 43334445#1 43334445#2 43334445#3 915106309#0 263590261#0 263590261#1 263590261#2"/>
    </vehicle>
    <vehicle id="8.0" depart="0.00">
        <route edges="100609307 208463813#4 916030746 917549769 917475284#0 917475284#1 917475283 391229791 385983526#0 385983526#1 385983526#2 385983526#3 916479660 916032136 208472218 916021640 915101543 915101542#1 915101541 263590270#0 263590270#1 263590270#2 263590278#0 263590278#1 263590278#2 263590278#3 263590269#0 263590269#1 263590260 915106308 263590295#1 263590295#2 915106307#0 915106307#2 915106306 915157956 263590296#0 263590296#1 263590296#2 263590296#3 263590296#4 263590296#5 263590296#6 263590296#7 915111800#0 263590329#0 263590329#2 263590329#3 263590329#4 263590329#6 14467389#5 43375166#0 43375166#1 43375166#2 43375166#3 43375166#4 43375166#5 264957600 264957568#0 264957568#1 264957568#2"/>
    </vehicle>
    <vehicle id="9.0" depart="0.00">
        <route edges="781803233 781803232#0 781803232#1 781803232#2 781803232#3 781803232#4 100609295#2 100609295#3 100609295#4 100609295#5 262072722 279000036#0 279000036#1 100609307 208463813#4 916030746 917549769 917475284#0 917475284#1 917475283 781678250#0 781678250#1 466433106 -555813339#7 -555813339#6 -555813339#5 -555813339#4 -555813339#3 -555813339#2 -555813339#1 -555813339#0 466433099#1 466433101#0 466433101#1 466433101#2 466433101#3 466433101#4 466433101#5 466433101#6 262067962#0 262067962#1 429133456#1 262067957 920983078#2 14484966#0 14484966#1 915219752 466547795 915219751#0 915219751#1 915209392 915209391 915219750#0 915219750#1 915219749#0 915219749#1 915618155 915618154 915618153#0 915618153#1 915618152 915219748#0 915219748#1 915219747 915220934#0 101021007#0 101021007#1 -32919813#1 915973986 43334449#5 60355269#0 60355269#1 915970593#3 915970593#4 915970593#5 915970593#6 915970593#7 915970590 965975296#0 965975296#1 965975296#2 965975295 965975290 965975289 100856866#0 100856860#0 -100856860#0"/>
    </vehicle>
</routes>
