<?xml version="1.0" encoding="UTF-8"?>

<!-- generated on 2024-02-11 10:04:59 by Eclipse SUMO jtrrouter Version 1.19.0
<configuration xmlns:xsi="http://www.w3.org/2001/XMLSchema-instance" xsi:noNamespaceSchemaLocation="http://sumo.dlr.de/xsd/jtrrouterConfiguration.xsd">

    <input>
        <net-file value="my_sumo_net.net.xml"/>
        <route-files value="odtrips.xml"/>
    </input>

    <output>
        <output-file value="jtrrouter.rou.xml"/>
    </output>

    <processing>
        <accept-all-destinations value="true"/>
    </processing>

    <time>
        <begin value="0"/>
        <end value="1"/>
    </time>

</configuration>
-->

<routes xmlns:xsi="http://www.w3.org/2001/XMLSchema-instance" xsi:noNamespaceSchemaLocation="http://sumo.dlr.de/xsd/routes_file.xsd">
    <vehicle id="0.0" depart="0.00">
        <route edges="310962293#4 916002836 916002837#0 916002837#1 263590278#0 263590278#1 263590278#2 263590278#3 23597854#0 23597854#3 23597854#6 23597854#7 466547793#0 466547793#1 466547793#2 466547793#3 466547793#4 466547793#5 466547793#6 466547793#7 466547793#8 466547793#9 23597836#0 23597836#1 23597836#2 23597836#3 23597836#4 23597836#5 23597836#7 263590267#0 263590267#1 263590267#2 263590263#1 263590263#2 127626595 42071638#0 42071638#1 285251775#0 285251775#1 285251775#2 285251775#3 230443580#0 230443580#1 101300556 409181358 915230464 264902515 915230472 100638384#0 100638384#1 14484889 561130291 262067965 429133456#1 262067957 920983078#2 14484966#0 14484966#1 915219752 466547795 915219751#0 915219751#1 915209392 915209391 262068151 263568319 263568306 263568302 262068148 915506473 915506472 466433097#0 466433097#1 14484965 920983077#0 920983077#1 920983077#2 920983077#3 920983077#4 920983076#0 920983076#1 262067984#0 916045695#0 916045695#1 916045694 916045693#0 916045693#1 916045692 14484970#0 14484970#1 14484970#2 466433103#1 14484971#0 550127709 -261267723#1 -261267723#0 261267723#0 261267723#1 550127711 14484971#2 550127703 -124314974#5 142018103 -142018103 -124314974#4 124314974#4 124314974#5 -43334488#1 -43334488#0 916313778#1 43334481#6 916313775 43334491#2 43334491#3 43334491#4 -43334491#4 -43334491#3 142018804#0 142018793#0 -142018793#0 142018804#1 142018804#2 142018804#3 142018804#4 142018804#5 -142018804#5 -142018804#4 -142018804#3 -142018804#2 -142018804#1 -142018804#0 916316782"/>
    </vehicle>
    <vehicle id="1.0" depart="0.00">
        <route edges="125529784 -896544166 125529780 915618152 915219748#0 915219748#1 915219747 915220934#0 915220934#1"/>
    </vehicle>
    <vehicle id="10.0" depart="0.00">
        <route edges="778204605#5 225757631#0 225757631#1 917578479 37994419#1 917578480 -778204605#4 -778204605#3 -778204605#2 -778204605#1 -778204605#0 778204604#1 32531939#5 778204603 -183462743#5 -183462743#4 -183462743#3 -183462743#1 -183462743#0 781678260 222071932#1 781662392#0 917557818#2 917557817 183462751 917549768#1 917549768#2 917549768#3 917549767 183462752 917554881#1 917557818#0 183462739#1 222071932#3 222071932#4 222071932#5 781678259 183462743#0 183462743#1 183462743#3 183462743#4 183462743#5 778204602 32531939#1 32531939#2 32531939#3 37994405#0 778204605#0 778204605#1 778204605#2 778204605#3 778204605#4"/>
    </vehicle>
    <vehicle id="11.0" depart="0.00">
        <route edges="14467384#4 14467384#5 897507452 264957569#1 264957569#2 264957569#3 264957569#4 14467389#3 14467389#4 14467389#5 14467389#1 43375167 915634619#0 915634619#1 915634618#0 915634618#1 14467384#0 14467384#2 14467384#3"/>
    </vehicle>
    <vehicle id="12.0" depart="0.00">
        <route edges="917550932#0 917550931"/>
    </vehicle>
    <vehicle id="13.0" depart="0.00">
        <route edges="-142018804#4 -142018804#3 -142018804#2 -142018804#1 142018793#0 142018802 -142018802 142018793#1 -142018793#1 -142018793#0 -142018804#0 916316782 43334491#4 897375903 43334479#8 916316781 -118878952#1 118878952#0 916316778 43334479#2 43334479#3 43334479#4 916316780 43334496#0 43334496#1 43334496#2 43334496#3 681369200#1 681369200#2 681369199#0 681369199#1 -681369199#1 -681369199#0 681369200#3 681369200#4 -43334496#3 -43334496#2 -43334496#1 -43334496#0 916316779 43334479#6 897375904 -43334491#4 -43334491#3 142018804#0 142018804#1 142018804#2 142018810#0 -540538048 540538048 142018810#1 142018810#2 -142018810#2 -142018803 142018803 -142018810#1 -142018810#0 142018804#3 142018804#4 142018804#5 -142018804#5"/>
    </vehicle>
    <vehicle id="14.0" depart="0.00">
        <route edges="915139687 915139684 915139690 100074405#0 100074405#1 -100074405#1 -100074405#0 23597866#1 263590311 424332563 43341969#0 43341969#1 916038249 916038248 312980121#0 312980121#1 43341974#0 43341974#1 264957590#0 264957590#1 245342184#0 245342184#1 263590295#2 915106307#0 261285916#0 23597872 -23597872 261285916#2 -100074400 100074400"/>
    </vehicle>
    <vehicle id="15.0" depart="0.00">
        <route edges="781678260 222071932#1 222071932#2 222071932#3 222071932#4 222071932#5 781678259 183462743#0 183462743#1 183462743#3 183462743#4 183462743#5 778204602 32531939#1 264141747 -264689643 917865768 917865770#3 917865770#4 917865767 -32346079#8 -221891977#1 -221891977#0 -358563908#1 -358563908#0 221891978 917466829 917466828 208463343 919238233#1 919238233#2 919238232 919238230#0 919238230#1 919238230#2 919238230#3 919238229"/>
    </vehicle>
    <vehicle id="16.0" depart="0.00">
        <route edges="262068624 915612318#1 125529784 -896544166 125529780 915618152 262068618 263568329 263568324 263568314 -896544161 -896544163"/>
    </vehicle>
    <vehicle id="17.0" depart="0.00">
        <route edges="14481694 160944272 14481681 916347008 259600438#0 259600438#1 285251775#1 285251775#2 285251775#3 230443580#0 230443580#1 230443580#2 1155184702 285246976#0 916302733 261412325#0 916368332 14481585 916368331#0 916368331#1 264910409#4 264910412 261412333#1 261412333#2 261412333#3 1155184701 264910402#0 264910402#1 264910402#2 118979180#0 118979180#1 918856196#0 918856196#1 118979179 39447908#1 285256978#0 188698233"/>
    </vehicle>
    <vehicle id="18.0" depart="0.00">
        <route edges="896909183 -142017073#1 -142017073#0 142016586#1 -142016586#1 -142016586#0 965742369 965742370#3 -965742371 965742371 965742370#4 142017309#0 142017309#1 -142017309#1 -142017309#0 965742370#5 965742366 43341964 965742370#1 965742368 142016586#0 142017073#0 -897032265 142017062#3 -142017062#3 -142017062#2 142017062#2 897032265 142017073#1 -896909183 -142017062#1 142017062#1"/>
    </vehicle>
    <vehicle id="19.0" depart="0.00">
        <route edges="915219750#0 915219750#1 915219749#0 915219749#1 915618155 915618154 915618153#0 915618153#1 915618152 915219748#0 915219748#1 915219747 915220934#0 101021007#0 101021007#1 -32919813#1 915973986 43334449#5 60355269#0 60355269#1 915970593#3 915970593#4 915970593#5 915970592 915970594#0 915970594#1 915970594#2 385723033 312980119#1 312980119#2 312980119#3 43341970 916303821 -385723029#1 916038248 312980121#0 312980121#1 43341974#0 43341974#1 264957590#0 264957590#1 264957591 916038247 915631464#0 915631464#1 43341968#0 -43341968#1 117898329#1 117898329#2 117898329#3 263590309 23597857#0 23597857#1 23597857#2 23597857#3 23597857#5 654311490#0 654311490#1 654311490#2 23597858#3 23597858#0 23597858#1 43376168#0 43376168#1 43376168#2 264961860#1 264961860#2 264961860#3 -23597862 -100074404 264961860#4 264961860#6 264961860#7 263590313 117901264#0 117901264#1"/>
    </vehicle>
    <vehicle id="2.0" depart="0.00">
        <route edges="43376165#7 43376165#8 43376165#9 43376165#10 43376165#11 43376165#12 43376165#13 43376165#14 43376165#15 43376165#16 43376165#17 43376165#18 43376165#20 -43375167 14467389#2 14467389#3 43376676#0 43376676#2 100420365#0 100420365#1 -100420365#1 -100420365#0 43376676#3 43376676#4 100420372 -100420372 43376676#5 263590320 424332564 782768860 782768859 222072051 43341971#0 43341971#1 43341971#2 263590322 263590329#0 100190757#0 100190757#2 100190757#4 100190757#5 -100190757#5 -100190757#4 -100190757#2 -100190757#0 263590329#2 263590329#3 263590329#4 100190747#0 100190747#1 100190747#2 100190747#3 -100190747#3 -100190747#2 -100190747#1 -100190747#0 263590329#6 14467389#5 43375166#0 43375166#1 43375166#2 43375166#3 43375166#4 43375166#5 264957600 264957568#0 264957568#1 264957568#2 264957568#3 264957568#4 264957568#5 264957568#6 28060718#1 915139691#0 915139684 100074392#0 100074392#1 -100074392#1 -100074392#0 915139690 23597866#1 915106306 915157956 225717499 263590285#1 263590285#3 915157955 915157954 263590274#0 263590274#1 263590274#2 263590274#3 245343713#0 245343713#1 264957590#0 264957590#1 245342184#0 245342184#1 263590295#2 915106307#0 915106307#2"/>
    </vehicle>
    <vehicle id="3.0" depart="0.00">
        <route edges="915623290#3 915623290#4 915623290#5 916000554 681381929 916000555 -916000556 916000556"/>
    </vehicle>
    <vehicle id="4.0" depart="0.00">
        <route edges="183462755#6 183462755#7 -32532496#1 -32532496#0 245375731#8 245375731#9 245375731#11 245375731#12 245375731#14 245375731#15 261321231#2 261321231#3 261321231#1"/>
    </vehicle>
    <vehicle id="5.0" depart="0.00">
        <route edges="100609295#4 100609295#5 100609280#1 329042667 14481586#1 264910410 14473470#0 14473470#1 14473470#2 14473470#3 95754556 95754560#0 95754560#1 95754560#2 917470919#0 917470919#1 917470919#2 680237088#0 680237088#1 680237088#2 14484929 782553845 429133454#0 429133454#1 429133454#3 917475285 466433099#1 208462701 916045695#0 916045695#1 916045694 916045693#0 916045693#1 916045692 14484970#0 14484970#1 14484970#2 466433103#1 14484971#0 550127709 -261267723#1 -261267723#0 -263568322 -896544150 263568302 263568322 261267723#0 261267723#1 550127711 14484971#2 550127703 550127706 14484971#4 133618021#0 133618021#1 466547801#0 542836748"/>
    </vehicle>
    <vehicle id="6.0" depart="0.00">
        <route edges="-124314974#5 124314974#5 -43334488#1 -43334488#0 916313778#1 43334481#6 916313775 916313774 43334481#2 43334481#3 43334481#4 916313779 43334488#0 43334488#1 550127706 14484971#4 133618021#0 133618021#1 466547801#0 466547801#3 14484971#6 14484968#0 14484968#1 14484968#2 14484968#3 14484968#4 656602061 916045692 14484970#0 14484970#1 14484970#2 466433103#1 14484971#0 550127709 -261267723#1 -261267723#0 -263568322 -896544150 -896544151 -896544154 262068153 915209391 915219750#0 915219750#1 915219749#0 915219749#1 915618155 915618154 915618153#0 125529789 -43334494#1 915618150 43334447#5 915628659#0 915628659#1 915628659#2 915628657#3 915628657#4 915628657#5 915630089#0 915628658#2 915628657#7 915630093 -66353368#3 -66353368#2 -66354266 66354266 66353368#2 66353368#3 915630092 915628657#1 43341965#0 43341965#1 915628660 43334447#1 43334447#2 43334447#3 43334447#4"/>
    </vehicle>
    <vehicle id="7.0" depart="0.00">
        <route edges="32532534#0 32532534#1 32532534#2 32532534#3 32532534#4 32532534#5 32532534#6 262946407 124696733#1 124696733#2 124696733#3 124696733#4 124696733#5 124696733#6 124696733#7 124696733#8"/>
    </vehicle>
    <vehicle id="8.0" depart="0.00">
        <route edges="100609307 208463813#4 916030746 917549769 917475284#0 917475284#1 917475283 391229791 385983526#0 385983526#1 385983526#2 385983526#3 916479660 916032136 23597852#0 23597852#1 23597852#2 23597852#3 23597852#4 23597852#5 23597852#6 310962293#4 916002836 916002837#0 916002837#1 263590278#0 263590278#1 263590278#2 263590278#3 23597854#0 23597854#3 23597854#6 23597854#7 466547793#0 466547793#1 466547793#2 466547793#3 466547793#4 466547793#5 466547793#6 466547793#7 466547793#8 466547793#9 466547790#2 264961857#0 264961857#1 264961857#2 264961857#3 264961857#4 264961857#5 278444274 206679952#1 41648435#0 41648435#1 41648435#2 285250679#0 285250679#1 285250679#2 285250679#3 285250679#4 285250679#5 127626598#0 127626598#1 329050882#0 915101542#1 915101541 245342207 263590267#2 263590302#0 263590302#1 263590302#2 409341885#1 915101543 263590249 23597846#0 23597846#1 23597846#2 23597846#3 23597846#4 23597846#5 23597846#6 -23597846#6 -23597846#5 -23597846#4 -23597846#3 -23597846#2 -23597846#1 -23597846#0 285254283#0 285254283#1 285254283#2 285250603#0 285250603#1 285250603#2 285250603#3 285250603#4 916036167#0 916036167#1 14481516 278444278#2 278444278#3 278444278#4 278444278#5 278444278#6 916036166 263303459#0 263303459#1 263303459#2 263303459#3 263303459#4 14481678#1 14481678#2 14481678#3 14481678#5 916347008 14481687 29351905 278444504#0 278444504#1"/>
    </vehicle>
    <vehicle id="9.0" depart="0.00">
        <route edges="781803233 781803232#0 781803232#1 781803232#2 781803232#3 264650985 84867708#1 84867708#2 264650982"/>
    </vehicle>
</routes>
