<?xml version="1.0" encoding="UTF-8"?>

<!-- generated on 2024-02-04 22:51:40 by Eclipse SUMO polyconvert Version 1.19.0
<configuration xmlns:xsi="http://www.w3.org/2001/XMLSchema-instance" xsi:noNamespaceSchemaLocation="http://sumo.dlr.de/xsd/polyconvertConfiguration.xsd">

    <input>
        <net-file value="my_sumo_net.net.xml"/>
        <osm-files value="map.osm"/>
        <type-file value="osmPolyconvert.typ.xml"/>
    </input>

    <output>
        <output-file value="my_sumo_net.poly.xml"/>
    </output>

</configuration>
-->

<additional xmlns:xsi="http://www.w3.org/2001/XMLSchema-instance" xsi:noNamespaceSchemaLocation="http://sumo.dlr.de/xsd/additional_file.xsd">
    <location netOffset="-186228.27,1752976.12" convBoundary="-1477.95,-1019.03,8365.03,6367.92" origBoundary="-47.943063,-15.845187,-47.850697,-15.779250" projParameter="+proj=utm +zone=23 +ellps=WGS84 +datum=WGS84 +units=m +no_defs"/>

    <poly id="100074391" type="landuse" color="194,194,130" fill="1" layer="-3.00" shape="3351.465429,3603.411370 3177.497919,3405.375000 3190.738624,3393.895136 3364.695402,3591.931253 3351.465429,3603.411370"/>
    <poly id="100074393" type="landuse" color="194,194,130" fill="1" layer="-3.00" shape="3229.106858,3711.117027 3055.149945,3513.079837 3068.390779,3501.600025 3242.347679,3699.637109 3229.106858,3711.117027"/>
    <poly id="100074397" type="landuse" color="194,194,130" fill="1" layer="-3.00" shape="3290.871121,3656.845914 3116.914270,3458.809213 3130.144317,3447.329227 3304.112030,3645.354897 3290.871121,3656.845914"/>
    <poly id="100074401" type="landuse" color="194,194,130" fill="1" layer="-3.00" shape="3600.072706,3891.642357 3408.067465,3664.563960 3420.827909,3654.472849 3614.390042,3881.406439 3600.072706,3891.642357"/>
    <poly id="100074413" type="landuse" color="194,194,130" fill="1" layer="-3.00" shape="3533.047445,3944.856105 3340.502480,3718.035481 3355.246133,3704.881674 3547.364848,3934.620219 3533.047445,3944.856105"/>
    <poly id="100074414" type="landuse" color="194,194,130" fill="1" layer="-3.00" shape="3470.563116,3994.577042 3279.086358,3768.833832 3292.951917,3757.152062 3484.880735,3984.330113 3470.563116,3994.577042"/>
    <poly id="100190741" type="leisure" color="207,245,201" fill="1" layer="-2.00" shape="2560.620448,4134.046244 2577.134286,4141.074767 2602.217736,4138.685606 2621.975678,4132.113834 2643.884070,4118.915348 2707.989002,4056.858375 2737.052774,4048.111316 2762.538295,4058.530867 2780.969120,4077.392223 2788.111808,4106.076775 2784.296021,4130.024769 2783.443233,4154.512067 2793.013041,4166.627900 2800.128358,4172.441095 2818.662122,4176.086044 2827.348260,4179.971619 2837.281804,4189.821964 2847.599789,4214.552037 2849.615099,4223.152306 2849.389815,4234.036435 2843.969805,4246.798161 2837.555244,4253.144507 2829.033009,4256.028349 2821.988891,4255.931123 2789.210697,4244.757563 2782.303975,4244.806202 2776.376827,4247.692622 2773.135808,4252.532189 2771.787515,4259.313951 2776.628485,4281.509685 2776.321240,4292.891087 2773.925435,4299.425803 2770.419710,4303.242768 2762.457111,4305.979258 2754.142904,4305.443610 2739.521065,4301.952315 2723.865706,4300.307429 2703.114762,4303.454335 2689.427828,4305.258945 2677.545828,4301.384570 2669.414852,4296.122165 2661.475270,4287.872004 2658.720223,4279.261491 2658.677640,4272.250086 2662.102248,4263.436948 2666.808423,4255.782287 2704.954136,4220.723332 2707.954698,4203.010681 2705.247365,4184.731889 2692.461068,4171.021021 2672.677487,4160.813061 2650.548611,4163.575374 2632.356459,4177.124242 2626.540972,4195.994174 2625.117189,4213.673227 2629.454017,4262.266153 2622.307191,4273.486651 2603.586597,4275.598254 2587.915036,4275.127053 2558.646155,4286.274545 2546.605392,4285.355073 2539.306338,4282.751164 2532.170379,4278.432795 2527.514316,4272.365521 2525.636724,4267.776454 2523.276633,4261.630142 2522.713193,4255.840920 2523.586610,4250.060473 2531.391128,4235.482117 2540.627290,4221.289032 2547.831085,4207.499814 2551.074472,4194.730210 2550.977083,4187.031357 2548.006146,4179.303881 2541.833093,4169.715774 2536.536030,4161.922930 2560.620448,4134.046244"/>
    <poly id="100190741#1" type="water" color="181,209,209" fill="1" layer="-4.00" shape="2560.620448,4134.046244 2577.134286,4141.074767 2602.217736,4138.685606 2621.975678,4132.113834 2643.884070,4118.915348 2707.989002,4056.858375 2737.052774,4048.111316 2762.538295,4058.530867 2780.969120,4077.392223 2788.111808,4106.076775 2784.296021,4130.024769 2783.443233,4154.512067 2793.013041,4166.627900 2800.128358,4172.441095 2818.662122,4176.086044 2827.348260,4179.971619 2837.281804,4189.821964 2847.599789,4214.552037 2849.615099,4223.152306 2849.389815,4234.036435 2843.969805,4246.798161 2837.555244,4253.144507 2829.033009,4256.028349 2821.988891,4255.931123 2789.210697,4244.757563 2782.303975,4244.806202 2776.376827,4247.692622 2773.135808,4252.532189 2771.787515,4259.313951 2776.628485,4281.509685 2776.321240,4292.891087 2773.925435,4299.425803 2770.419710,4303.242768 2762.457111,4305.979258 2754.142904,4305.443610 2739.521065,4301.952315 2723.865706,4300.307429 2703.114762,4303.454335 2689.427828,4305.258945 2677.545828,4301.384570 2669.414852,4296.122165 2661.475270,4287.872004 2658.720223,4279.261491 2658.677640,4272.250086 2662.102248,4263.436948 2666.808423,4255.782287 2704.954136,4220.723332 2707.954698,4203.010681 2705.247365,4184.731889 2692.461068,4171.021021 2672.677487,4160.813061 2650.548611,4163.575374 2632.356459,4177.124242 2626.540972,4195.994174 2625.117189,4213.673227 2629.454017,4262.266153 2622.307191,4273.486651 2603.586597,4275.598254 2587.915036,4275.127053 2558.646155,4286.274545 2546.605392,4285.355073 2539.306338,4282.751164 2532.170379,4278.432795 2527.514316,4272.365521 2525.636724,4267.776454 2523.276633,4261.630142 2522.713193,4255.840920 2523.586610,4250.060473 2531.391128,4235.482117 2540.627290,4221.289032 2547.831085,4207.499814 2551.074472,4194.730210 2550.977083,4187.031357 2548.006146,4179.303881 2541.833093,4169.715774 2536.536030,4161.922930 2560.620448,4134.046244"/>
    <poly id="100190748" type="residential" color="235,235,227" fill="1" layer="-3.00" shape="3438.893125,4022.073070 3246.917937,3795.923992 3449.463921,3631.564669 3636.497981,3863.768633 3438.893125,4022.073070"/>
    <poly id="100190753" type="landuse" color="194,194,130" fill="0" layer="-3.00" shape="2231.875898,3818.477676 2228.339344,3815.216837 2224.811367,3812.886466 2220.766309,3810.726150 2215.094343,3809.119258 2210.442142,3808.213158 2204.753633,3807.802198 2196.510193,3808.363770 2188.158920,3810.518732 2181.139709,3814.054417 2175.301538,3819.035191 2166.955292,3827.027051 2157.823150,3836.015915 2151.443524,3842.927422 2147.963001,3847.243048 2145.984409,3850.737711 2144.162966,3853.725070 2143.378294,3856.184070 2141.528488,3865.096478 2143.980157,3873.138052 2147.737553,3882.139116 2150.509205,3885.655198 2153.558392,3889.263725 2160.454311,3892.316313 2165.504900,3896.982557 2168.915097,3901.626105 2171.486719,3906.424185 2171.762404,3910.525966 2170.364148,3916.254852 2168.844289,3918.371415 2164.836418,3921.273150 2158.057494,3922.165093 2152.925859,3922.581423 2146.981531,3922.831450 2141.042568,3921.918613 2137.262296,3924.646283 2136.113547,3927.842311 2135.726330,3931.802015 2135.641145,3937.958865 2136.149017,3943.880258 2136.189287,3947.170265 2135.880645,3950.876318 2134.040197,3955.236788 2131.694306,3958.925730 2128.429887,3961.571933 2125.097008,3962.965647 2120.330964,3964.084792 2115.906787,3964.521979 2112.096806,3963.970861 2107.529123,3962.379228 2103.482817,3960.307482 2101.048423,3957.992225 2079.792154,3935.668730 2073.658735,3924.785147 2070.160945,3919.497985 2057.899862,3909.714684 2040.224121,3898.328002 2028.839893,3892.599412 2021.009393,3887.340875 2005.387023,3874.808566 1987.207171,3844.841064 1985.822769,3840.269825 1985.289191,3836.208767 1986.819526,3830.238049 1987.864895,3828.314289 1989.502400,3826.221517 1993.006663,3824.841273 1995.464186,3824.709159 1999.961393,3825.192285 2004.531495,3826.606771 2008.750386,3828.603401 2016.089680,3832.160580 2022.568802,3835.883060 2027.547996,3838.731955 2040.779038,3845.837336 2054.516598,3853.536725 2061.848855,3857.603267 2070.307498,3860.090508 2078.794340,3860.540225 2087.364353,3860.404084 2092.478213,3859.721711 2098.360201,3857.776273 2105.978472,3853.573287 2111.289314,3850.279795 2115.803567,3843.331410 2116.257867,3840.723856 2116.049584,3837.176784 2112.194344,3827.498746 2105.805010,3817.287238 2099.657531,3806.647125 2094.732274,3800.675674 2089.084981,3798.061211 2081.312236,3794.830325 2072.935712,3792.610035 2056.584859,3790.102165 2048.537179,3788.141155 2041.135876,3783.641700 2033.832770,3777.471185 2029.148459,3771.912848 2027.260148,3767.334637 2026.948636,3765.048751 2027.058932,3763.278182 2030.060355,3761.038153 2035.019054,3759.168559 2044.226833,3756.338823 2049.665988,3756.170443 2055.669382,3757.848422 2060.500012,3758.258625 2065.909642,3754.025088 2068.501044,3751.192373 2073.053100,3747.711183 2078.349980,3745.425389 2081.584189,3744.960672 2083.970440,3749.977716 2086.024479,3754.979086 2087.944216,3757.287227 2092.193440,3757.091294 2095.358122,3755.451600 2098.547476,3752.029075 2100.068430,3746.733837 2101.657385,3741.949018 2103.741348,3739.364016 2106.039116,3738.376860 2108.837563,3739.179802 2112.539513,3741.335395 2116.481157,3744.767997 2119.486511,3748.442380 2122.474397,3753.379139 2126.208640,3760.175849 2127.600879,3763.407036 2126.888039,3766.099617 2122.532051,3767.811436 2118.861162,3769.610263 2117.307000,3771.106113 2116.751604,3774.819827 2116.789567,3778.275938 2118.218545,3785.051825 2119.437245,3789.199885 2121.781250,3791.846161 2124.747575,3792.141946 2127.999256,3790.414845 2131.166237,3788.609044 2133.548554,3787.711658 2136.092144,3788.333860 2140.470779,3791.185496 2145.697792,3793.949188 2152.561984,3794.642245 2156.273443,3796.886564 2160.225675,3799.555086 2163.019231,3799.937080 2168.566531,3798.153130 2171.624013,3791.860195 2174.529863,3784.900626 2177.744791,3779.628822 2181.352270,3776.212072 2185.022231,3775.254968 2190.628180,3774.656913 2196.184815,3772.197477 2200.645104,3769.146942 2201.212128,3764.591645 2198.571907,3759.327442 2197.097106,3755.087240 2196.995878,3750.777436 2197.374967,3747.404627 2199.202829,3744.727471 2200.817940,3744.251414 2203.966371,3743.785493 2206.198275,3742.132881 2208.294941,3737.853483 2210.115603,3734.921489 2212.515524,3733.525939 2214.550301,3733.720221 2217.236169,3736.459820 2219.388568,3739.779045 2222.440032,3746.322626 2224.814975,3752.934377 2225.373702,3761.381701 2225.710345,3768.053860 2225.871923,3774.978335 2226.412586,3778.530001 2228.836551,3781.598242 2232.032157,3783.924016 2237.793259,3784.513184 2242.389091,3784.067278 2247.842334,3782.880092 2252.697625,3781.507424 2256.364059,3780.804998 2259.158990,3781.087319 2263.470550,3782.586779 2267.949058,3784.420815 2272.239482,3786.673121 2275.628843,3787.395609 2277.930281,3786.917963 2281.197107,3784.094570 2283.641441,3779.487708 2286.088990,3773.873014 2288.223164,3767.655904 2291.114884,3760.939794 2293.636869,3756.921012 2296.114133,3755.360389 2297.897416,3755.130314 2301.635678,3755.436752 2304.235631,3757.410935 2305.570455,3759.367621 2306.515485,3764.696968 2305.259413,3775.655494 2304.751536,3782.138758 2304.406625,3788.469219 2304.435275,3792.600805 2305.177218,3800.208911 2308.146466,3806.496599 2312.227073,3812.290178 2316.976090,3818.602476 2320.229458,3822.955865 2326.932395,3829.882184 2329.655044,3831.514716 2332.839479,3832.322965 2337.071704,3831.805557 2339.663692,3830.479102 2362.202428,3809.691783 2368.409355,3802.855371 2373.724883,3799.218549 2385.349386,3797.651481"/>
    <poly id="100190753#1" type="leisure" color="207,245,201" fill="0" layer="-2.00" shape="2231.875898,3818.477676 2228.339344,3815.216837 2224.811367,3812.886466 2220.766309,3810.726150 2215.094343,3809.119258 2210.442142,3808.213158 2204.753633,3807.802198 2196.510193,3808.363770 2188.158920,3810.518732 2181.139709,3814.054417 2175.301538,3819.035191 2166.955292,3827.027051 2157.823150,3836.015915 2151.443524,3842.927422 2147.963001,3847.243048 2145.984409,3850.737711 2144.162966,3853.725070 2143.378294,3856.184070 2141.528488,3865.096478 2143.980157,3873.138052 2147.737553,3882.139116 2150.509205,3885.655198 2153.558392,3889.263725 2160.454311,3892.316313 2165.504900,3896.982557 2168.915097,3901.626105 2171.486719,3906.424185 2171.762404,3910.525966 2170.364148,3916.254852 2168.844289,3918.371415 2164.836418,3921.273150 2158.057494,3922.165093 2152.925859,3922.581423 2146.981531,3922.831450 2141.042568,3921.918613 2137.262296,3924.646283 2136.113547,3927.842311 2135.726330,3931.802015 2135.641145,3937.958865 2136.149017,3943.880258 2136.189287,3947.170265 2135.880645,3950.876318 2134.040197,3955.236788 2131.694306,3958.925730 2128.429887,3961.571933 2125.097008,3962.965647 2120.330964,3964.084792 2115.906787,3964.521979 2112.096806,3963.970861 2107.529123,3962.379228 2103.482817,3960.307482 2101.048423,3957.992225 2079.792154,3935.668730 2073.658735,3924.785147 2070.160945,3919.497985 2057.899862,3909.714684 2040.224121,3898.328002 2028.839893,3892.599412 2021.009393,3887.340875 2005.387023,3874.808566 1987.207171,3844.841064 1985.822769,3840.269825 1985.289191,3836.208767 1986.819526,3830.238049 1987.864895,3828.314289 1989.502400,3826.221517 1993.006663,3824.841273 1995.464186,3824.709159 1999.961393,3825.192285 2004.531495,3826.606771 2008.750386,3828.603401 2016.089680,3832.160580 2022.568802,3835.883060 2027.547996,3838.731955 2040.779038,3845.837336 2054.516598,3853.536725 2061.848855,3857.603267 2070.307498,3860.090508 2078.794340,3860.540225 2087.364353,3860.404084 2092.478213,3859.721711 2098.360201,3857.776273 2105.978472,3853.573287 2111.289314,3850.279795 2115.803567,3843.331410 2116.257867,3840.723856 2116.049584,3837.176784 2112.194344,3827.498746 2105.805010,3817.287238 2099.657531,3806.647125 2094.732274,3800.675674 2089.084981,3798.061211 2081.312236,3794.830325 2072.935712,3792.610035 2056.584859,3790.102165 2048.537179,3788.141155 2041.135876,3783.641700 2033.832770,3777.471185 2029.148459,3771.912848 2027.260148,3767.334637 2026.948636,3765.048751 2027.058932,3763.278182 2030.060355,3761.038153 2035.019054,3759.168559 2044.226833,3756.338823 2049.665988,3756.170443 2055.669382,3757.848422 2060.500012,3758.258625 2065.909642,3754.025088 2068.501044,3751.192373 2073.053100,3747.711183 2078.349980,3745.425389 2081.584189,3744.960672 2083.970440,3749.977716 2086.024479,3754.979086 2087.944216,3757.287227 2092.193440,3757.091294 2095.358122,3755.451600 2098.547476,3752.029075 2100.068430,3746.733837 2101.657385,3741.949018 2103.741348,3739.364016 2106.039116,3738.376860 2108.837563,3739.179802 2112.539513,3741.335395 2116.481157,3744.767997 2119.486511,3748.442380 2122.474397,3753.379139 2126.208640,3760.175849 2127.600879,3763.407036 2126.888039,3766.099617 2122.532051,3767.811436 2118.861162,3769.610263 2117.307000,3771.106113 2116.751604,3774.819827 2116.789567,3778.275938 2118.218545,3785.051825 2119.437245,3789.199885 2121.781250,3791.846161 2124.747575,3792.141946 2127.999256,3790.414845 2131.166237,3788.609044 2133.548554,3787.711658 2136.092144,3788.333860 2140.470779,3791.185496 2145.697792,3793.949188 2152.561984,3794.642245 2156.273443,3796.886564 2160.225675,3799.555086 2163.019231,3799.937080 2168.566531,3798.153130 2171.624013,3791.860195 2174.529863,3784.900626 2177.744791,3779.628822 2181.352270,3776.212072 2185.022231,3775.254968 2190.628180,3774.656913 2196.184815,3772.197477 2200.645104,3769.146942 2201.212128,3764.591645 2198.571907,3759.327442 2197.097106,3755.087240 2196.995878,3750.777436 2197.374967,3747.404627 2199.202829,3744.727471 2200.817940,3744.251414 2203.966371,3743.785493 2206.198275,3742.132881 2208.294941,3737.853483 2210.115603,3734.921489 2212.515524,3733.525939 2214.550301,3733.720221 2217.236169,3736.459820 2219.388568,3739.779045 2222.440032,3746.322626 2224.814975,3752.934377 2225.373702,3761.381701 2225.710345,3768.053860 2225.871923,3774.978335 2226.412586,3778.530001 2228.836551,3781.598242 2232.032157,3783.924016 2237.793259,3784.513184 2242.389091,3784.067278 2247.842334,3782.880092 2252.697625,3781.507424 2256.364059,3780.804998 2259.158990,3781.087319 2263.470550,3782.586779 2267.949058,3784.420815 2272.239482,3786.673121 2275.628843,3787.395609 2277.930281,3786.917963 2281.197107,3784.094570 2283.641441,3779.487708 2286.088990,3773.873014 2288.223164,3767.655904 2291.114884,3760.939794 2293.636869,3756.921012 2296.114133,3755.360389 2297.897416,3755.130314 2301.635678,3755.436752 2304.235631,3757.410935 2305.570455,3759.367621 2306.515485,3764.696968 2305.259413,3775.655494 2304.751536,3782.138758 2304.406625,3788.469219 2304.435275,3792.600805 2305.177218,3800.208911 2308.146466,3806.496599 2312.227073,3812.290178 2316.976090,3818.602476 2320.229458,3822.955865 2326.932395,3829.882184 2329.655044,3831.514716 2332.839479,3832.322965 2337.071704,3831.805557 2339.663692,3830.479102 2362.202428,3809.691783 2368.409355,3802.855371 2373.724883,3799.218549 2385.349386,3797.651481"/>
    <poly id="100190753#2" type="water" color="181,209,209" fill="0" layer="-4.00" shape="2231.875898,3818.477676 2228.339344,3815.216837 2224.811367,3812.886466 2220.766309,3810.726150 2215.094343,3809.119258 2210.442142,3808.213158 2204.753633,3807.802198 2196.510193,3808.363770 2188.158920,3810.518732 2181.139709,3814.054417 2175.301538,3819.035191 2166.955292,3827.027051 2157.823150,3836.015915 2151.443524,3842.927422 2147.963001,3847.243048 2145.984409,3850.737711 2144.162966,3853.725070 2143.378294,3856.184070 2141.528488,3865.096478 2143.980157,3873.138052 2147.737553,3882.139116 2150.509205,3885.655198 2153.558392,3889.263725 2160.454311,3892.316313 2165.504900,3896.982557 2168.915097,3901.626105 2171.486719,3906.424185 2171.762404,3910.525966 2170.364148,3916.254852 2168.844289,3918.371415 2164.836418,3921.273150 2158.057494,3922.165093 2152.925859,3922.581423 2146.981531,3922.831450 2141.042568,3921.918613 2137.262296,3924.646283 2136.113547,3927.842311 2135.726330,3931.802015 2135.641145,3937.958865 2136.149017,3943.880258 2136.189287,3947.170265 2135.880645,3950.876318 2134.040197,3955.236788 2131.694306,3958.925730 2128.429887,3961.571933 2125.097008,3962.965647 2120.330964,3964.084792 2115.906787,3964.521979 2112.096806,3963.970861 2107.529123,3962.379228 2103.482817,3960.307482 2101.048423,3957.992225 2079.792154,3935.668730 2073.658735,3924.785147 2070.160945,3919.497985 2057.899862,3909.714684 2040.224121,3898.328002 2028.839893,3892.599412 2021.009393,3887.340875 2005.387023,3874.808566 1987.207171,3844.841064 1985.822769,3840.269825 1985.289191,3836.208767 1986.819526,3830.238049 1987.864895,3828.314289 1989.502400,3826.221517 1993.006663,3824.841273 1995.464186,3824.709159 1999.961393,3825.192285 2004.531495,3826.606771 2008.750386,3828.603401 2016.089680,3832.160580 2022.568802,3835.883060 2027.547996,3838.731955 2040.779038,3845.837336 2054.516598,3853.536725 2061.848855,3857.603267 2070.307498,3860.090508 2078.794340,3860.540225 2087.364353,3860.404084 2092.478213,3859.721711 2098.360201,3857.776273 2105.978472,3853.573287 2111.289314,3850.279795 2115.803567,3843.331410 2116.257867,3840.723856 2116.049584,3837.176784 2112.194344,3827.498746 2105.805010,3817.287238 2099.657531,3806.647125 2094.732274,3800.675674 2089.084981,3798.061211 2081.312236,3794.830325 2072.935712,3792.610035 2056.584859,3790.102165 2048.537179,3788.141155 2041.135876,3783.641700 2033.832770,3777.471185 2029.148459,3771.912848 2027.260148,3767.334637 2026.948636,3765.048751 2027.058932,3763.278182 2030.060355,3761.038153 2035.019054,3759.168559 2044.226833,3756.338823 2049.665988,3756.170443 2055.669382,3757.848422 2060.500012,3758.258625 2065.909642,3754.025088 2068.501044,3751.192373 2073.053100,3747.711183 2078.349980,3745.425389 2081.584189,3744.960672 2083.970440,3749.977716 2086.024479,3754.979086 2087.944216,3757.287227 2092.193440,3757.091294 2095.358122,3755.451600 2098.547476,3752.029075 2100.068430,3746.733837 2101.657385,3741.949018 2103.741348,3739.364016 2106.039116,3738.376860 2108.837563,3739.179802 2112.539513,3741.335395 2116.481157,3744.767997 2119.486511,3748.442380 2122.474397,3753.379139 2126.208640,3760.175849 2127.600879,3763.407036 2126.888039,3766.099617 2122.532051,3767.811436 2118.861162,3769.610263 2117.307000,3771.106113 2116.751604,3774.819827 2116.789567,3778.275938 2118.218545,3785.051825 2119.437245,3789.199885 2121.781250,3791.846161 2124.747575,3792.141946 2127.999256,3790.414845 2131.166237,3788.609044 2133.548554,3787.711658 2136.092144,3788.333860 2140.470779,3791.185496 2145.697792,3793.949188 2152.561984,3794.642245 2156.273443,3796.886564 2160.225675,3799.555086 2163.019231,3799.937080 2168.566531,3798.153130 2171.624013,3791.860195 2174.529863,3784.900626 2177.744791,3779.628822 2181.352270,3776.212072 2185.022231,3775.254968 2190.628180,3774.656913 2196.184815,3772.197477 2200.645104,3769.146942 2201.212128,3764.591645 2198.571907,3759.327442 2197.097106,3755.087240 2196.995878,3750.777436 2197.374967,3747.404627 2199.202829,3744.727471 2200.817940,3744.251414 2203.966371,3743.785493 2206.198275,3742.132881 2208.294941,3737.853483 2210.115603,3734.921489 2212.515524,3733.525939 2214.550301,3733.720221 2217.236169,3736.459820 2219.388568,3739.779045 2222.440032,3746.322626 2224.814975,3752.934377 2225.373702,3761.381701 2225.710345,3768.053860 2225.871923,3774.978335 2226.412586,3778.530001 2228.836551,3781.598242 2232.032157,3783.924016 2237.793259,3784.513184 2242.389091,3784.067278 2247.842334,3782.880092 2252.697625,3781.507424 2256.364059,3780.804998 2259.158990,3781.087319 2263.470550,3782.586779 2267.949058,3784.420815 2272.239482,3786.673121 2275.628843,3787.395609 2277.930281,3786.917963 2281.197107,3784.094570 2283.641441,3779.487708 2286.088990,3773.873014 2288.223164,3767.655904 2291.114884,3760.939794 2293.636869,3756.921012 2296.114133,3755.360389 2297.897416,3755.130314 2301.635678,3755.436752 2304.235631,3757.410935 2305.570455,3759.367621 2306.515485,3764.696968 2305.259413,3775.655494 2304.751536,3782.138758 2304.406625,3788.469219 2304.435275,3792.600805 2305.177218,3800.208911 2308.146466,3806.496599 2312.227073,3812.290178 2316.976090,3818.602476 2320.229458,3822.955865 2326.932395,3829.882184 2329.655044,3831.514716 2332.839479,3832.322965 2337.071704,3831.805557 2339.663692,3830.479102 2362.202428,3809.691783 2368.409355,3802.855371 2373.724883,3799.218549 2385.349386,3797.651481"/>
    <poly id="100197274" type="leisure" color="207,245,201" fill="1" layer="-2.00" shape="3051.190853,4882.367326 3078.243852,4884.180111 3080.923423,4844.611083 3053.870319,4842.809366 3051.190853,4882.367326"/>
    <poly id="100197274#1" type="sport" color="79,230,125" fill="1" layer="-2.00" shape="3051.190853,4882.367326 3078.243852,4884.180111 3080.923423,4844.611083 3053.870319,4842.809366 3051.190853,4882.367326"/>
    <poly id="100197276" type="leisure" color="207,245,201" fill="1" layer="-2.00" shape="3035.330758,4824.766493 3065.953046,4827.481334 3069.730453,4785.291471 3039.097502,4782.576477 3035.330758,4824.766493"/>
    <poly id="100197276#1" type="sport" color="79,230,125" fill="1" layer="-2.00" shape="3035.330758,4824.766493 3065.953046,4827.481334 3069.730453,4785.291471 3039.097502,4782.576477 3035.330758,4824.766493"/>
    <poly id="100197280" type="amenity" color="237,199,199" fill="1" layer="-1.00" shape="3295.619320,4794.584840 3306.756678,4785.589936 3298.372397,4775.340366 3287.245914,4784.324340 3295.619320,4794.584840"/>
    <poly id="100197280#1" type="building" color="255,230,230" fill="1" layer="-1.00" shape="3295.619320,4794.584840 3306.756678,4785.589936 3298.372397,4775.340366 3287.245914,4784.324340 3295.619320,4794.584840"/>
    <poly id="100197282" type="leisure" color="207,245,201" fill="1" layer="-2.00" shape="3046.721457,4956.079591 3076.104758,4958.445038 3080.582741,4903.550168 3051.199666,4901.173641 3046.721457,4956.079591"/>
    <poly id="100197282#1" type="sport" color="79,230,125" fill="1" layer="-2.00" shape="3046.721457,4956.079591 3076.104758,4958.445038 3080.582741,4903.550168 3051.199666,4901.173641 3046.721457,4956.079591"/>
    <poly id="100420361" type="landuse" color="194,194,130" fill="1" layer="-3.00" shape="2705.752340,2947.246343 2509.880256,2784.707284 2519.459404,2772.047468 2717.210642,2933.615621 2705.752340,2947.246343"/>
    <poly id="100420363" type="landuse" color="194,194,130" fill="1" layer="-3.00" shape="3041.082886,3498.952735 2858.017161,3309.271520 2870.064603,3298.019007 3055.014262,3485.610697 3041.082886,3498.952735"/>
    <poly id="100420364" type="landuse" color="194,194,130" fill="1" layer="-3.00" shape="2807.534072,3258.667983 2617.760478,3087.542626 2629.105723,3075.117600 2818.868541,3246.242718 2807.534072,3258.667983"/>
    <poly id="100420367" type="landuse" color="194,194,130" fill="1" layer="-3.00" shape="3099.229581,3444.964502 2916.619874,3252.554399 2930.201641,3242.785018 3113.171610,3431.622588 3099.229581,3444.964502"/>
    <poly id="100420369" type="landuse" color="194,194,130" fill="1" layer="-3.00" shape="3159.649038,3382.446158 2979.080999,3196.732181 2991.806480,3184.514339 3172.374639,3370.217140 3159.649038,3382.446158"/>
    <poly id="100420370" type="landuse" color="194,194,130" fill="1" layer="-3.00" shape="2864.854831,3199.275160 2673.004035,3027.169060 2684.786939,3014.107683 2876.929456,3186.826872 2864.854831,3199.275160"/>
    <poly id="100420371" type="landuse" color="194,194,130" fill="1" layer="-3.00" shape="2653.495511,3011.881005 2454.333861,2851.466853 2469.258090,2834.572576 2664.953875,2998.250299 2653.495511,3011.881005"/>
    <poly id="100420373" type="landuse" color="194,194,130" fill="1" layer="-3.00" shape="2921.359418,3139.948504 2729.508877,2967.842864 2741.291718,2954.781468 2933.433982,3127.500196 2921.359418,3139.948504"/>
    <poly id="100420374" type="landuse" color="194,194,130" fill="1" layer="-3.00" shape="2603.520308,3076.668966 2408.888055,2917.468936 2420.153115,2903.868887 2614.796166,3063.057903 2603.520308,3076.668966"/>
    <poly id="100420855" type="building" color="255,230,230" fill="1" layer="-1.00" shape="2725.978026,3221.844942 2784.685108,3274.035354 2798.831696,3258.315202 2740.124483,3206.135897 2725.978026,3221.844942"/>
    <poly id="100420856" type="building" color="255,230,230" fill="1" layer="-1.00" shape="2599.357448,3109.417227 2656.994128,3160.651870 2670.552643,3145.588199 2612.905263,3094.353440 2599.357448,3109.417227"/>
    <poly id="100420857" type="building" color="255,230,230" fill="1" layer="-1.00" shape="2661.491992,3164.180673 2721.745404,3217.743892 2735.946386,3201.969150 2675.692997,3148.405967 2661.491992,3164.180673"/>
    <poly id="100421909" type="building" color="255,230,230" fill="1" layer="-1.00" shape="2696.694321,3127.840903 2756.947837,3181.392958 2771.148773,3165.618202 2710.895433,3112.055109 2696.694321,3127.840903"/>
    <poly id="100421910" type="building" color="255,230,230" fill="1" layer="-1.00" shape="2634.559981,3073.066477 2692.196614,3124.301033 2705.744210,3109.248274 2648.107598,3058.013750 2634.559981,3073.066477"/>
    <poly id="100421911" type="building" color="255,230,230" fill="1" layer="-1.00" shape="2719.367004,3105.825872 2776.617428,3154.762187 2790.025459,3140.493820 2733.568087,3090.040068 2719.367004,3105.825872"/>
    <poly id="100421912" type="building" color="255,230,230" fill="1" layer="-1.00" shape="2778.907379,3158.991449 2836.184921,3210.641442 2850.447992,3195.022559 2793.181193,3143.372749 2778.907379,3158.991449"/>
    <poly id="100421913" type="building" color="255,230,230" fill="1" layer="-1.00" shape="2656.836887,3047.103139 2716.746246,3101.481274 2730.224131,3086.815186 2670.325514,3032.437233 2656.836887,3047.103139"/>
    <poly id="100421914" type="building" color="255,230,230" fill="1" layer="-1.00" shape="2761.180456,3185.494002 2819.887491,3237.684327 2834.023159,3221.975085 2775.316146,3169.784795 2761.180456,3185.494002"/>
    <poly id="100422375" type="building" color="255,230,230" fill="1" layer="-1.00" shape="2689.288837,3011.910482 2750.420350,3066.305420 2763.908915,3051.639467 2703.999776,2997.250379 2689.288837,3011.910482"/>
    <poly id="100422376" type="building" color="255,230,230" fill="1" layer="-1.00" shape="2835.639315,3101.074716 2892.905911,3152.735495 2907.168908,3137.116589 2849.902333,3085.455844 2835.639315,3101.074716"/>
    <poly id="100422377" type="building" color="255,230,230" fill="1" layer="-1.00" shape="2871.935258,3065.491907 2928.335240,3117.007726 2942.617340,3101.555202 2886.217377,3050.039417 2871.935258,3065.491907"/>
    <poly id="100422378" type="building" color="255,230,230" fill="1" layer="-1.00" shape="2844.840027,3410.873693 2796.528249,3362.980437 2782.143569,3377.301793 2830.444486,3425.206005 2844.840027,3410.873693"/>
    <poly id="100422379" type="building" color="255,230,230" fill="1" layer="-1.00" shape="2805.525261,3003.515222 2868.765106,3061.328028 2882.263228,3046.739680 2819.034125,2988.927058 2805.525261,3003.515222"/>
    <poly id="100422380" type="building" color="255,230,230" fill="1" layer="-1.00" shape="2812.592158,3123.815655 2869.858934,3175.465418 2884.121961,3159.846521 2826.855359,3108.185719 2812.592158,3123.815655"/>
    <poly id="100422381" type="building" color="255,230,230" fill="1" layer="-1.00" shape="2960.916248,3522.201425 2910.675879,3475.710630 2897.797670,3488.103562 2900.943841,3491.680090 2903.657167,3494.763318 2947.431436,3536.590681 2960.916248,3522.201425"/>