<?xml version="1.0" encoding="UTF-8"?>

<!-- generated on 2024-02-04 23:31:26.568612 by randomTrips.py UNKNOWN
<configuration>
    <net-file value="my_sumo_net.net.xml"/>
    <route-file value="odtrips.rou.xml"/>
    <length value="True"/>
    <end value="100.0"/>
</configuration>
-->

<!-- generated on 2024-02-04 23:31:26 by Eclipse SUMO duarouter Version 1.19.0
<configuration xmlns:xsi="http://www.w3.org/2001/XMLSchema-instance" xsi:noNamespaceSchemaLocation="http://sumo.dlr.de/xsd/duarouterConfiguration.xsd">

    <input>
        <net-file value="my_sumo_net.net.xml"/>
        <route-files value="trips.trips.xml"/>
    </input>

    <output>
        <output-file value="odtrips.rou.xml"/>
        <alternatives-output value="NUL"/>
    </output>

    <time>
        <begin value="0"/>
        <end value="100.0"/>
    </time>

    <report>
        <no-warnings value="true"/>
        <ignore-errors value="true"/>
        <no-step-log value="true"/>
    </report>

</configuration>
-->

<routes xmlns:xsi="http://www.w3.org/2001/XMLSchema-instance" xsi:noNamespaceSchemaLocation="http://sumo.dlr.de/xsd/routes_file.xsd">
    <vehicle id="0" depart="0.00">
        <route edges="264957593 782768860 782768859 222072051 43341971#0 43341971#1 43341971#2 263590322 263590329#0 263590329#2 263590329#3 263590329#4 263590329#6 14467389#5 14467389#1 43375167 915634619#0 915634619#1 915634618#0 915634618#1 14467384#0 43375161#0 43375161#1 43375161#2 43375161#3 43375161#4 109021175#1 43375165 43375158#2 43375159 -109021180#12 -109021180#11 -109021180#10"/>
    </vehicle>
    <vehicle id="1" depart="1.00">
        <route edges="100609282 117896191#0 118316527 100609295#4 100609295#5 262072722 279000036#0 279000036#1 100609307 208463813#4 916030746 917549769 917475284#0 917475284#1 917475283 391229791 385983526#0 385983526#1 385983526#2 385983526#3 916479660 916032136 208472218 916021640 915101543 915101542#1 915101541 263590270#0 263590270#1 263590270#2 263590278#0 263590278#1 263590278#2 263590278#3 263590269#0 263590269#1 263590260 915106308 263590295#1 263590295#2 915106307#0 915106307#2 915106306 915157956 263590296#0 263590296#1 263590296#2 263590296#3 263590296#4 263590296#5 263590296#6 263590296#7 915111800#0 263590329#0 263590329#2 263590329#3 263590329#4 263590329#6 14467389#5 14467389#1 14467389#2 14467389#3 43376676#0 43376676#2 100420365#0"/>
    </vehicle>
    <vehicle id="2" depart="2.00">
        <route edges="41648435#0 41648435#1 41648435#2 285250679#0 285250679#1 285250679#2 285250679#3 285250679#4 285250679#5 285250600 42071638#0 42071638#1 285251775#0 285251775#1 285251775#2 285251775#3 230443580#0 230443580#1 230443580#2 1155184702 285246976#0 916302733 261412325#0 261412325#1 261412325#2 261412325#3 261412325#4 261412325#5 261412325#6 261412325#7 264910410 329050885 329050884#0 329050884#1 95754558#0 95754558#1 183174344#1 14593066#0 14593066#1 100609282 117896191#0 118316527 100609295#4 100609289 100609303#3 100609303#4 100609303#5 100609303#6 100609303#7 898466119 -918408889#4 33010993#0 33010993#1"/>
    </vehicle>
    <vehicle id="3" depart="3.00">
        <route edges="915554028 915554027 915554026 915554025 125402734 915612318#0 915612318#1 125529784 -896544166 263568329 263568324 263568314 263568328 118878952#0 916316778 43334479#2 897375902 43334492#1 43334493#0 43334493#4 43334493#5 43334493#6 43334493#7 43334493#8 142018794 -142018811#0"/>
    </vehicle>
    <vehicle id="4" depart="4.00">
        <route edges="14481510#20 14481510#21 14481510#22 14481510#23 14481510#24 183174344#1 183174355 329042667 264910409#0 264910409#1 264910409#2 264910409#4 264910412 261412333#1 261412333#2 261412333#3 1155184701 264910402#0 264910402#1 264910402#2 264910402#3 14481679#0 14481679#1 14481679#2 278444737 14483123 100637136 14481694 160944272 285256040 329050882#0 263590249 285254283#0 285254283#1 285254283#2 285250603#0 285250603#1 285250603#2 278444275 278444276#0 278444276#1 278444276#2 278444276#3 117900644#0 117900644#1 27937769#2 27937769#3 27937769#4 43376172#0 43376172#1 109021180#0 109021180#1 109021180#2 109021180#3 109021180#4 109021180#5 109021180#6 109021180#7 109021180#8 109021180#9 109021180#10 109021180#11 109021180#12 -109021180#12 -109021180#11 -109021180#10 -109021180#9 -109021180#8 -109021180#7 -109021180#6"/>
    </vehicle>
    <vehicle id="5" depart="5.00">
        <route edges="-701898171#5 -701898171#4 -701898171#3 -701898171#2 -701898171#1 -701898171#0 701898171#0 701898171#1 701898171#2 701898171#3 701898171#4 701898171#5 701898171#6 701898171#7 701898171#8 701898171#9 701898171#10 701898171#12 701898171#13 701898171#15 701898171#16 782117645#1 782117645#2 918735128 918408889#1 918408889#3 918408889#4 898466118 100609303#1 100609303#2 100609303#3 100609303#4 100609303#5 100609305 279000036#0 279000036#1 100609307 208463813#4 916030746 917549769 917475284#0 917475284#1 917475283 391229791 385983526#0 385983526#1 385983526#2 385983526#3 916479660 916032136 915623290#3 915623290#4 915623290#5 915623290#6 916021637 916021636 245337289#0 245337289#1 245337289#2"/>
    </vehicle>
    <vehicle id="8" depart="8.00">
        <route edges="-773795642#0 -917546851 -917546850 -917546849 917539227#0 917539227#1-AddedOnRampEdge 917539227#1 917539226 -183462737#2 -183462737#1 14481667#0 14481667#1 917549768#3 917549767 183462752 917554881#1 917557818#0 183462739#1 222071932#3 222071932#4 222071932#5 781678259 183462743#0 183462743#1 183462743#3 183462743#4 183462743#5 778204602 32531939#1 264141747 -264689643 917865768 917865770#3 917865770#4 917865770#5 917865770#1 917865769 264689643"/>
    </vehicle>
    <vehicle id="9" depart="9.00">
        <route edges="696899455 696899461#1 696899459 696899458#0 915214777#0 696899452 14484871 696899451 285251777 14484888#0 14484888#1 915216457 915216456 14484967#0 14484967#2 262067957 920983081 920983080 310962293#1 310962293#2 310962293#4 916002836 916002837#0 916002837#1 263590278#0 263590278#1 263590278#2 263590278#3 263590269#0 263590269#1 23597857#0 23597857#1 23597857#2 23597857#3 23597857#5 654311490#0 654311490#1 654311490#2 23597858#3 23597858#0 23597858#1 43376168#0 43376168#1 43376168#2 264961860#1 -100074407"/>
    </vehicle>
    <vehicle id="10" depart="10.00">
        <route edges="66354266 66353368#2 66353368#3 915630092 915628657#1 915628657#2 915628657#3 915628657#4 915628657#5 915630089#0 915630089#1 915630089#3 43334446#5 915631469 43341966#0 43341966#1 43341966#2 915203516 27937925#1 27937925#2 27937925#3 27937925#4 27937925#5 43334445#0 43334445#1 43334445#2 43334445#3 915106309#0 263590261#0 263590261#1 263590261#2 263590267#0 263590267#1 263590267#2 263590249 285254283#0 285254283#1 285254283#2 285250603#0 285250603#1 285250603#2 285250603#3 285250603#4 916036167#0 916036167#1 14481516 278444278#2 278444278#3 278444278#4 278444278#5 278444278#6 278444278#7 385983525#0 385983525#1 385983525#2 385983525#3"/>
    </vehicle>
    <vehicle id="11" depart="11.00">
        <route edges="124698681#4 124698643#7 124698645 917524601 183462748#0 183462748#1 183462748#2-AddedOnRampEdge 183462748#2 183462748#3 183462748#4 329050883#5 183474584 183462755#1 183462755#2 183462755#3 183462755#4 183462755#5 183462755#6 183462755#7 917539228 917549768#0 917549768#1 917549768#2 917549768#3 917549767 917539229#0 917539229#1 917539229#2 183462732 917470917 782553845 429133454#0 429133454#1 429133454#3 917475285 466433099#1 466433101#0 466433101#1 466433101#2 466433101#3 466433101#4 466433101#5 466433101#6 262067962#0 262067962#1 429133456#1 262067957 920983078#2 14484966#0 14484966#1 915219752 466547795 915219751#0 915219751#1 23597853 -27937907#1 -27937907#0 194736921 27937925#3 27937925#4 27937925#5 27937925#6 27937925#7 915203517 -43341966#2 -43341966#1 -43341966#0"/>
    </vehicle>
    <vehicle id="12" depart="12.00">
        <route edges="917549768#0 917549768#1 917549768#2 917549768#3 917549767 917539229#0 917539229#1 917539229#2 183462732 917470917 782553845 429133454#0 429133454#1 429133454#3 917475285 466433099#1 466433101#0 466433101#1 466433101#2 466433101#3 466433101#4 466433101#5 466433101#6 262067962#0 262067962#1 429133456#1 262067957 920983078#2 14484966#0 14484966#1 915219752 466547795 915219751#0 915219751#1 915209392 915209391 915219750#0 915219750#1 915219749#0 915219749#1 915618155 915618154 915618153#0 915618153#1 915618152 915219748#0 915219748#1 915219747 915220934#0 101021007#0 101021007#1 -32919813#1 915973986 43334449#5 43334449#6 43334449#1 915975566 785748962#0 785748962#1 896909185 142015869#2 142015859#0 142015859#1 142015877#0 142015877#1"/>
    </vehicle>
    <vehicle id="13" depart="13.00">
        <route edges="-142017683#1 -142017683#0 43334488#1 550127706 14484971#4 14484971#5 14484971#6 14484971#7 14484971#0 550127709 -261267723#1 -261267723#0 -263568322 -896544150 -896544151 -896544154 -261267721 -27937907#1 -27937907#0 194736921 27937925#3 27937925#4 27937925#5 43334445#0 43334445#1 43334445#2 43334445#3 915106309#0 263590261#0 263590261#1 263590261#2 23597838#0 23597838#1 23597838#2 23597838#3 23597838#4 -222398473#1 -222398473#0"/>
    </vehicle>
    <vehicle id="15" depart="15.00">
        <route edges="680237088#0 680237088#1 680237088#2 14484929 782553845 429133454#0 429133454#1 429133454#3 917475285 466433099#1 466433101#0 466433101#1 466433101#2 466433101#3 466433101#4 466433101#5 466433101#6 262067962#0 262067962#1 429133456#1 262067957 920983078#2 14484966#0 14484966#1 915219752 466547795 915219751#0 915219751#1 915209392 915209391 915219750#0 915219750#1 915219749#0 915219749#1 915618155 915618154 915618153#0 125529789 -43334494#1 43334494#0"/>
    </vehicle>
    <vehicle id="16" depart="16.00">
        <route edges="245337289#1 245337289#2 920983078#2 262067961#0 262067961#1 429133455#1 920983077#0 920983077#1 920983077#2 920983077#3 920983077#4 920983076#0 920983076#1 262067984#0 262067984#1 262067984#2 262067984#3 262067984#6 262067984#7 262067984#8 14481574 466547799#0 466547799#1 466547799#2 466547799#3 466547799#4 919238234 208463344 917466827#2 -221891979 -264689641#3 -264689641#1 -264689641#0 221891977#0 221891977#1 32346079#8 917865766 917865770#1 917865770#2 917865770#3 917865770#4 917865767"/>
    </vehicle>
    <vehicle id="17" depart="17.00">
        <route edges="142015848 -142015848 -142015874#4 -142015874#3 -142015874#2 -142015874#1 -142015874#0 915973988 915970593#5 915970592 915970594#0 915970594#1 915970594#2 385723033 312980119#1 312980119#2 312980119#3 43341970 916303821 -385723029#1 916038248 312980121#0 312980121#1 312980121#2 915157955 915157954 263590274#0 263590274#1 263590274#2 263590274#3 263590274#4 263590274#5 263590275#0 263590275#2 263590266 915203524 915203523 263590288#0 263590288#1 263590288#2 915203520 263590261#0 263590261#1 263590261#2 263590267#0 263590267#1 263590267#2 263590249 285254283#0 285254283#1 285254283#2 285250603#0 285250603#1 285250603#2 285250603#3 285250603#4 916036167#0 916036167#1 14481516 278444278#2 278444278#3 278444278#4 278444278#5 278444278#6 916036166 263303459#0 263303459#1 263303459#2 263303459#3 263303459#4"/>
    </vehicle>
    <vehicle id="18" depart="18.00">
        <route edges="79127596 14484952 262067979 429133455#1 920983077#0 920983077#1 920983077#2 920983077#3 920983077#4 920983076#0 920983076#1 208462703 466433101#1 466433101#2 466433101#3 466433101#4 466433101#5 466433101#6 262067962#0 262067962#1 429133456#1 262067957 920983081 920983080 310962293#1 310962293#2 310962293#4 916002836 245337293#0 245337293#1 245337293#2 245337293#3 245337293#4 409341885#1 915101543 263590249 285254283#0 285254283#1 285254283#2 285250603#0 285250603#1 285250603#2 285250603#3 285250603#4 916036167#0 916036167#1 14481516 278444278#2"/>
    </vehicle>
    <vehicle id="19" depart="19.00">
        <route edges="915219747 915220934#0 101021007#0 101021007#1 -32919813#1 915973986 43334449#5 60355269#0 60355269#1 915970593#3 915970593#4 915970593#5 915970592 915970594#0 915970594#1 915970594#2 385723033 312980119#1 312980119#2 312980119#3 43341970 916303821 -385723029#1 916038248 312980121#0 312980121#1 312980121#2 915157955 915157954 263590274#0 263590274#1 263590274#2 263590274#3 263590274#4 263590274#5 263590275#0 263590275#2 263590266 915203524 915203523 263590288#0 263590288#1 263590288#2 915203520 43334444#1 263590328#0 263590328#1"/>
    </vehicle>
    <vehicle id="20" depart="20.00">
        <route edges="33010994#4 -33010994#4 -33010994#3 -33010994#2 264650973#0 264650973#1 264650973#2 918408889#3 918408889#4 898466118 100609303#1 100609303#2 100609303#3 100609303#4 100609303#5 100609305 279000036#0 279000036#1 100609307 208463813#4 916030746 917549769 917475284#0 917475284#1 917475283 781678250#0 781678250#1 466433106 -555813339#7 -555813339#6 -555813339#5 -555813339#4 -555813339#3 -555813339#2 -555813339#1 -555813339#0 466433099#1 466433101#0 466433101#1 466433101#2 466433101#3 466433101#4 466433101#5 466433101#6 262067962#0 262067962#1 429133456#1 262067957 920983078#2 14484966#0 14484966#1 915219752 466547795 915219751#0 915219751#1 23597853 -27937907#1 -27937907#0 194736921 27937925#3 27937925#4 27937925#5 27937925#6 27937925#7 915203517 -43341966#2 -43341966#1 -140908238#4 -140908238#3 -140908238#2 -140908238#1 -140908238#0"/>
    </vehicle>
    <vehicle id="21" depart="21.00">
        <route edges="-773795642#8 -773795642#7 -773795642#6 -773795642#5 -773795642#4 -773795642#3 -773795642#2 -773795642#1 -773795642#0 -917546851 -917546850 -917546849 -917546848 -917546852#3 -917546852#0 208463813#0 208463813#1 208463813#2 100609294 279000497#0 279000497#1 279000042 14593066#1 100609282 117896191#0 118316527 100609295#4 100609295#5 100609280#1 329042667 264910409#0 264910409#1 264910409#2 264910409#4 264910412 261412333#1 261412333#2 261412333#3 1155184701 264910402#0 264910402#1 264910402#2 118979180#0 118979180#1 918856196#0 918856196#1 118979179"/>
    </vehicle>
    <vehicle id="23" depart="23.00">
        <route edges="-142018108 124314979#2 124314974#1 124314974#2 124314974#3 124314974#4 124314974#5 550127706 14484971#4 14484971#5 14484971#6 14484971#7 14484971#0 550127709 -261267723#1 -261267723#0 -263568322 -896544150 -896544151 -896544154 -261267721 -27937907#1 -27937907#0 194736921 27937925#3 27937925#4 27937925#5 43334445#0 43334445#1 43334445#2 43334445#3 915106309#0 263590261#0 263590261#1 263590261#2 23597838#0 23597838#1 23597838#2 23597838#3 23597838#4 23597838#6 23597838#7 23597838#8 915101539 264961857#0 264961857#1 23597834 278444276#1 278444276#2 278444276#3 117900644#0 117900644#1 27937769#2 27937769#3 27937769#4 43376172#0 43376172#1 109021180#0 109021180#1 109021180#2 109021180#3 109021180#4 109021180#5 109021180#6 109021180#7 109021180#8"/>
    </vehicle>
    <vehicle id="24" depart="24.00">
        <route edges="264957591 916038247 915631464#0 915631464#1 43341968#0 915631465 43334446#3 915631467 915628658#1 915628658#2 915628657#7 915628657#8 915628657#1 43341965#0 43341965#1 915628660 43334447#1 43334447#2 43334447#3 915618151 43334494#0 118878957 263568329 263568324 263568314 263568328 118878952#0 916316778 43334479#2 897375902 43334492#1 43334493#0 142018791"/>
    </vehicle>
    <vehicle id="25" depart="25.00">
        <route edges="141453057#0 141453057#1 681369200#2 681369200#3 681369200#4 -43334496#3 -43334496#2 -43334496#1 -43334496#0 916316779 43334479#6 897375904 -43334491#4 -43334491#3 -43334491#2 916313774 43334481#2 43334481#3 43334481#4 916313779 43334488#0 43334488#1 550127706 14484971#4 14484971#5 14484971#6 14484968#0 14484968#1 14484968#2 14484968#3 14484968#4 14484968#5 14484968#6 14484968#7 14484968#8 14484968#9 262067984#2 262067984#3 262067984#6 262067984#7 262067984#8 917554883#0 917554883#1 14481579 183462758 183462761#0 183462761#2 183462761#3 183462761#4 183462761#5 183462761#6 224751029#0 224751029#1 100609292 279000497#0 279000497#1 100609286 100609303#7 898466119 -918408889#4 -918408889#3 -918408889#1 -918408889#0 -918409981#9"/>
    </vehicle>
    <vehicle id="26" depart="26.00">
        <route edges="100190747#1 100190747#2 100190747#3 -100190747#3 -100190747#2 -100190747#1 -100190747#0 263590329#6 14467389#5 43375166#0 43375166#1 43375166#2 43375166#3 43375166#4 43375166#5 264957600 264957568#0 264957568#1 264957568#2 264957568#3 264957568#4 264957568#5 264957568#6 28060718#1 28060718#2 28060718#3 23597833#0 264957567#0 264957567#1 264957567#2 264957567#3 264957567#4 264957601 264957566 264961861#0 264961861#1 915203520 43334444#1 263590328#0 263590328#1 263590328#2 27937925#7 27937925#8 27937925#1 194736920 27937907#0 27937907#1 261267721 263568319 263568306 263568302 263568322 261267723#0 261267723#1 550127711 14484971#2 550127703 -43334488#1 -43334488#0 916313778#1 43334481#6 43334481#1 43334481#2 43334481#3 43334481#4 916313779"/>
    </vehicle>
    <vehicle id="28" depart="28.00">
        <route edges="-37994436#1 37994436#1 37994436#2 37994436#3 37994436#4 37994436#5 37994436#6 262946406 124696733#5 32532588 262946287 778197934 124698643#3 124698643#4 124698643#5 124698643#6 124698643#7 124698645 917524601 183462748#0 183462748#1 183462748#2-AddedOnRampEdge 183462748#2 183462748#3 183462748#4 329050883#5 183474584 183462755#1 183462755#2 183462755#3 183462755#4 183462755#5 183462755#6 183462755#7 917539228 917549768#0 917549768#1 917549768#2 917549768#3 917549767 917539229#0 917539229#1 917539229#2 183462732 917470917 782553845 429133454#0 429133454#1 429133454#3 917475285 466433099#1 466433101#0 466433101#1 466433101#2 466433101#3 466433101#4 466433101#5 466433101#6 262067962#0 262067962#1 429133456#1 262067957 920983078#2 14484966#0 14484966#1 915219752 466547795 915219751#0 915219751#1 915209392 915209391 915219750#0 915219750#1 915219749#0 915219749#1 915618155 915618154 915618153#0 125529789 -43334494#1 43334494#0"/>
    </vehicle>
    <vehicle id="29" depart="29.00">
        <route edges="-32919813#1 915973986 43334449#5 60355269#0 60355269#1 915970593#3 915970593#4 915970593#5 915970592 915970594#0 915970594#1 915970594#2 385723033 312980119#1 312980119#2 312980119#3 43341970 916303821 -385723029#1 916038248 312980121#0 312980121#1 312980121#2 263590316 261285916#0 261285916#2 915139687 915139689#1 28060718#3 28060718#4 43376167 43376164#4 43376164#5 43376164#1 43376165#0 43376165#1 43376165#2 43376165#5 43376165#6 43376165#7 43376165#8 43376165#9 43376165#10 43376165#11 43376165#12 43376165#13 43376165#14 43376165#15 43376165#16 43376165#17 43376165#18 43376165#20 915634619#0 915634619#1 915634618#0 915634618#1 14467384#0 14467384#2 14467384#3 14467384#4 14467384#5"/>
    </vehicle>
    <vehicle id="30" depart="30.00">
        <route edges="919238234 208463344 917466827#2 917466826 263733253#0 263733253#1 263733253#2 263733253#3 917470922 917470923#0 917470923#1 183462758 183462761#0 183462761#2 183462761#3 183462761#4 654370832 14481551 246247649 208463813#1 208463813#2 208463813#3 208463813#4 916030746 917549769 917475284#0 917475284#1 917475283 391229791 385983526#0 385983526#1 385983526#2 385983526#3 916479660 916032136 208472218 916021640 915101543 263590263#1 263590263#2 183003886 29351905"/>
    </vehicle>
    <vehicle id="31" depart="31.00">
        <route edges="261300734 915588450 915588449 915588448 915588447 915588446 915588445 915588444 298597161#0 298597161#1 79127607#1 79127607#2-AddedOnRampEdge 79127607#2 14593182#0 14593182#1 896538194 101300559 916347004 285246976#0 916302733 261412325#0 261412325#1 261412325#2 261412325#3 261412325#4 261412325#5 261412325#6 261412325#7 264910410 329050885 329050884#0 329050884#1 95754558#0 95754558#1 183174344#1 14593066#0 14593066#1 100609282 117896191#0 117896191#1 917594188 367113035 367113037#0 367113037#1"/>
    </vehicle>
    <vehicle id="33" depart="33.00">
        <route edges="-773795642#8 -773795642#7 -773795642#6 -773795642#5 -773795642#4 -773795642#3 -773795642#2 -773795642#1 -773795642#0 -917546851 -917546850 -917546849 -917546848 -917546852#3 -917546852#0 208463813#0 208463813#1 208463813#2 208463813#3 208463813#4 916030746 917549769 917475284#0 917475284#1 917475283 391229791 385983526#0 385983526#1 385983526#2 385983526#3 916479660 916032136 208472218 916021640 915101543 263590249 285254283#0 285254283#1 285254283#2 285250603#0 285250603#1 285250603#2 278444275 278444276#0 278444276#1 278444276#2 278444276#3 117900644#0 117900644#1 27937769#2 27937769#3 27937769#4 43376172#0 43376172#1 109021180#0 109021180#1 109021180#2 109021180#3 109021180#4 109021180#5 109021180#6 109021180#7 109021180#8 109021180#9 109021180#10 109021180#11 109021180#12 -109021180#12 -109021180#11 -109021180#10 -109021180#9 -109021180#8"/>
    </vehicle>
    <vehicle id="36" depart="36.00">
        <route edges="915505196#0 915505196#1 915505195#0 915505195#1 915246452#0 915246452#1 915506473 262068152 -896544150 -896544151 -896544154 -261267721 -27937907#1 -27937907#0 194736921 27937925#3 27937925#4 27937925#5 27937925#6 27937925#7 915203517 -43341966#2 -43341966#1 -140908238#4 -140908238#3 -140908238#2 -140908238#1 140908238#1"/>
    </vehicle>
    <vehicle id="37" depart="37.00">
        <route edges="279000497#1 100609286 100609303#7 100609303#0 100609303#1 100609303#2 100609303#3 100609303#4 100609303#5 100609305 279000036#0 279000036#1 100609307 208463813#4 916030746 917549769 917475284#0 917475284#1 917475283 391229791 385983526#0 385983526#1 385983526#2 385983526#3 916479660 916032136 208472218 916021640 915101543 915101542#1 915101541 263590270#0 263590270#1 263590270#2 14481555#1 14481555#3 14481555#4 14481555#5 14481555#6"/>
    </vehicle>
    <vehicle id="39" depart="39.00">
        <route edges="100074408#0 100074408#1 -100074408#1 -100074408#0 915139684 915139690 23597866#1 915106306 915157956 225717499 263590285#1 263590285#3 915157955 915157954 263590274#0 263590274#1 263590274#2 263590274#3 263590274#4 263590274#5 263590275#0 263590275#2 263590266 915203524 915203523 263590288#0 263590288#1 263590288#2 915203520 263590261#0 263590261#1 263590261#2 14481555#1 14481555#3 14481555#4 14481555#5 14481555#6 920983079 920983078#1 920983078#2 262067961#0 14484955 14484956 915209389 696899461#0 696899461#1 696899459 696899458#0 915214777#0 915214777#1 14484868#0 14484868#1 285245824#0 285245824#1 100638390 100638378#1 100638378#3 100638378#4 100648328#1 100648328#4 100648338#1 188698863 915214775#0 915214775#1 100648334#1 100648334#3 100648334#4"/>
    </vehicle>
    <vehicle id="41" depart="41.00">
        <route edges="263568322 261267723#0 261267723#1 -261267723#1 -261267723#0 -263568322 -896544150 125531320 915506470 915588439"/>
    </vehicle>
    <vehicle id="42" depart="42.00">
        <route edges="142018803 -142018810#1 -142018810#0 -142018804#2 -142018804#1 -142018804#0 916316782 -43334491#3 -43334491#2 916313774 43334481#2 43334481#3 43334481#4 916313779 43334488#0 43334488#1 550127706 14484971#4 14484971#5 14484971#6 14484971#7 14484971#0 550127709 -261267723#1 -261267723#0 -263568322 -896544150 -896544151 -896544154 -261267721 -27937907#1 -27937907#0 194736921 27937925#3 27937925#4 27937925#5 43334445#0 43334445#1 43334445#2 43334445#3 915106309#0 263590278#3 263590269#0 263590269#1 263590260 915106308 263590295#1 263590295#2 915106307#0 915106307#2 915106306 915157956 263590296#0 263590296#1 263590296#2 263590296#3 263590296#4 263590296#5 263590296#6 263590296#7 915111800#0 263590329#0 100190757#0"/>
    </vehicle>
    <vehicle id="43" depart="43.00">
        <route edges="95756609#2 95756609#3 95756609#4 278444278#5 278444278#6 278444278#7 385983525#0 385983525#1 385983525#2 385983525#3 259600437#0 259600437#1 285250679#0 285250679#1 285250679#2 285250679#3 285250679#4 285250679#5 127626598#0 127626598#1 329050882#0 915101542#1 915101541 263590270#0 263590270#1 263590270#2 263590278#0 263590278#1 263590278#2 263590278#3 263590269#0 263590269#1 263590260 915106308 263590295#1 263590295#2 915106307#0 915106307#2 915106306 915157956 225717499 263590285#1 263590285#3 915157955 915157954 263590274#0 263590274#1 263590274#2 263590274#3 245343713#0 245343713#1 264957590#0 264957590#1 245342184#0"/>
    </vehicle>
    <vehicle id="44" depart="44.00">
        <route edges="-142017569#2 -142017569#1 -142017569#0 -43341966#1 -43341966#0 915631468 43334446#1 43334446#2 43334446#3 915631467 915628658#1 915628658#2 915628657#7 915628657#8 915628657#1 915628657#2 915628657#3 915630091 140908903#0 140908898 -140908898"/>
    </vehicle>
    <vehicle id="45" depart="45.00">
        <route edges="-142018804#5 -142018804#4 -142018804#3 -142018804#2 -142018804#1 -142018804#0 916316782 -43334491#3 -43334491#2 916313774 43334481#2 43334481#3 43334481#4 916313779 43334488#0 43334488#1 550127706 14484971#4 14484971#5 14484971#6 14484971#7 14484971#0 550127709 -261267723#1 -261267723#0 -263568322 -896544150 -896544151 -896544154 -261267721 -27937907#1 -27937907#0 27937907#0 27937907#1"/>
    </vehicle>
    <vehicle id="46" depart="46.00">
        <route edges="466547799#4 919238234 208463344 917466827#2 917466826 263733253#0 263733253#1 263733253#2 263733253#3 917470922 917470923#0 917470923#1 183462758 183462761#0 183462740#1 917539229#2 183462732 917470917 782553845 429133454#0 429133454#1 429133454#3 917475285 466433099#1 466433101#0 466433101#1 466433101#2 466433101#3 466433101#4 466433101#5 466433101#6 14484963"/>
    </vehicle>
    <vehicle id="47" depart="47.00">
        <route edges="-142015819#6 -142015819#5 -142015819#4 -142015819#3 -142015819#2 916307403 896909184#1 896909184#2 896909184#3 43334449#3 43334449#4 43334449#5 60355269#0 60355269#1 915970593#3 915970593#4 915970593#5 915970592 915970594#0 915970594#1 915970594#2 385723033 312980119#1 312980119#2 312980119#3 43341970 916303821 -385723029#1 916038248 312980121#0 312980121#1 312980121#2 915157955 915157954 245342180 915106307#0 915106307#2 915106306 915157956 263590296#0 263590296#1 263590296#2 263590296#3 263590296#4 263590296#5 263590296#6 263590296#7 915111800#0 263590329#0 263590329#2 245345038 43376676#4 43376676#5 263590320 424332564 782768860 782768859 222072051 43341971#0 43341971#1 14467402"/>
    </vehicle>
    <vehicle id="48" depart="48.00">
        <route edges="95756609#1 95756609#2 95756609#3 95756609#4 278444278#5 278444278#6 278444278#7 385983525#0 385983525#1 385983525#2 385983525#3 259600437#0 259600437#1 285250679#0 285250679#1 285250679#2 285250679#3 285250679#4 285250679#5 285250600 42071638#0 42071638#1 285251775#0 285251775#1 285251775#2 285251775#3 230443580#0 230443580#1 230443580#2 1155184702 285246976#0 916302733 261412325#0 261412325#1 261412325#2 261412325#3 261412325#4 261412325#5 261412325#6 261412325#7"/>
    </vehicle>
    <vehicle id="50" depart="50.00">
        <route edges="-100190760#2 -100190760#0 263590329#4 263590329#6 14467389#5 43375166#0 43375166#1 43375166#2 43375166#3 43375166#4 43375166#5 264957600 264957568#0 264957568#1 264957568#2 264957568#3 264957568#4 264957568#5 264957568#6 28060718#1 28060718#2 28060718#3 23597833#0 264957567#0 264957567#1 264957567#2 264957567#3 264957567#4 264957601 264957566 264961861#0 264961861#1 915203520 43334444#1 263590328#0 263590328#1 263590328#2 27937925#7 27937925#8 27937925#1 194736920 27937907#0 27937907#1 261267721 263568319 263568306 263568302 263568322 261267723#0 261267723#1 550127711 14484971#2 550127703 -43334488#1 -43334488#0 916313778#1 43334481#6 43334481#1 43334481#2 916313777 43334485"/>
    </vehicle>
    <vehicle id="51" depart="51.00">
        <route edges="32532130 14481670#15 14481670#16 14481670#17 14481670#18 264141746 -917546851 -917546850 -917546849 917539227#0 917539227#1-AddedOnRampEdge 917539227#1 917539226 -183462737#2 -183462737#1 14481667#0 14481667#1 917549768#3 917549767 917539229#0 917539229#1 917539229#2 183462732 917470917 782553845 183462757 262067984#7 262067984#8"/>
    </vehicle>
    <vehicle id="52" depart="52.00">
        <route edges="100190747#0 100190747#1 100190747#2 100190747#3 -100190747#3 -100190747#2 -100190747#1 -100190747#0 263590329#6 14467389#5 43375166#0 43375166#1 43375166#2 43375166#3 43375166#4 43375166#5 264957600 264957568#0 264957568#1 264957568#2 264957568#3 264957568#4 264957568#5 264957568#6 28060718#1 28060718#2 28060718#3 23597833#0 264957567#0 264957567#1 264957567#2 264957567#3 264957567#4 264957601 264957566 264961861#0 264961861#1 915203520 43334444#1 263590328#0 263590328#1 263590328#2 27937925#7 27937925#8 27937925#1 194736920 27937907#0 27937907#1 261267721 263568319 263568306 263568302 -896544150 125531320 915506470 915588439 249454646 915588446 915588445 915588444 298597161#0 298597161#1"/>
    </vehicle>
    <vehicle id="53" depart="53.00">
        <route edges="-142497723#0 264650973#1 264650973#2 918408889#3 918408889#4 898466118 100609303#1 100609303#2 100609303#3 100609303#4 100609303#5 100609305 279000036#0 279000036#1 100609307 208463813#4 916030746 917549769 917475284#0 917475284#1 917475283 391229791 385983526#0 385983526#1 385983526#2 385983526#3 916479660 916032136 208472218 916021640 915101543 263590263#1 263590263#2 183003886"/>
    </vehicle>
    <vehicle id="54" depart="54.00">
        <route edges="14484958 14484871 696899451 285251777 14484888#0 14484888#1 696899460 696899459 696899457 915588443 915588442 915509553 79127596 14484952 262067979 429133455#1 920983077#0 920983077#1 920983077#2 920983077#3 920983077#4 920983076#0 920983076#1 262067984#0 262067984#1 262067984#2 262067984#3 262067984#6 262067984#7 262067984#8 917554883#0 917554883#1 14481579 183462758 183462761#0 183462740#1 917539229#2"/>
    </vehicle>
    <vehicle id="55" depart="55.00">