<?xml version="1.0" encoding="UTF-8"?>

<!-- generated on 2024-02-04 23:31:25.158435 by randomTrips.py UNKNOWN
<configuration>
    <net-file value="my_sumo_net.net.xml"/>
    <route-file value="odtrips.rou.xml"/>
    <length value="True"/>
    <end value="100.0"/>
</configuration>
-->

<routes xmlns:xsi="http://www.w3.org/2001/XMLSchema-instance" xsi:noNamespaceSchemaLocation="http://sumo.dlr.de/xsd/routes_file.xsd">
    <trip id="0" depart="0.00" from="264957593" to="-109021180#10"/>
    <trip id="1" depart="1.00" from="100609282" to="100420365#0"/>
    <trip id="2" depart="2.00" from="41648435#0" to="33010993#1"/>
    <trip id="3" depart="3.00" from="915554028" to="-142018811#0"/>
    <trip id="4" depart="4.00" from="14481510#20" to="-109021180#6"/>
    <trip id="5" depart="5.00" from="-701898171#5" to="245337289#2"/>
    <trip id="6" depart="6.00" from="-100866996" to="-917588216#0"/>
    <trip id="7" depart="7.00" from="278444504#0" to="262946407"/>
    <trip id="8" depart="8.00" from="-773795642#0" to="264689643"/>
    <trip id="9" depart="9.00" from="696899455" to="-100074407"/>
    <trip id="10" depart="10.00" from="66354266" to="385983525#3"/>
    <trip id="11" depart="11.00" from="124698681#4" to="-43341966#0"/>
    <trip id="12" depart="12.00" from="917549768#0" to="142015877#1"/>
    <trip id="13" depart="13.00" from="-142017683#1" to="-222398473#0"/>
    <trip id="14" depart="14.00" from="915106308" to="264957570#1"/>
    <trip id="15" depart="15.00" from="680237088#0" to="43334494#0"/>
    <trip id="16" depart="16.00" from="245337289#1" to="917865767"/>
    <trip id="17" depart="17.00" from="142015848" to="263303459#4"/>
    <trip id="18" depart="18.00" from="79127596" to="278444278#2"/>
    <trip id="19" depart="19.00" from="915219747" to="263590328#1"/>
    <trip id="20" depart="20.00" from="33010994#4" to="-140908238#0"/>
    <trip id="21" depart="21.00" from="-773795642#8" to="118979179"/>
    <trip id="22" depart="22.00" from="-142017071#1" to="100609295#0"/>
    <trip id="23" depart="23.00" from="-142018108" to="109021180#8"/>
    <trip id="24" depart="24.00" from="264957591" to="142018791"/>
    <trip id="25" depart="25.00" from="141453057#0" to="-918409981#9"/>
    <trip id="26" depart="26.00" from="100190747#1" to="916313779"/>
    <trip id="27" depart="27.00" from="278444276#7" to="264957593"/>
    <trip id="28" depart="28.00" from="-37994436#1" to="43334494#0"/>
    <trip id="29" depart="29.00" from="-32919813#1" to="14467384#5"/>
    <trip id="30" depart="30.00" from="919238234" to="29351905"/>
    <trip id="31" depart="31.00" from="261300734" to="367113037#1"/>
    <trip id="32" depart="32.00" from="897090880" to="43376676#5"/>
    <trip id="33" depart="33.00" from="-773795642#8" to="-109021180#8"/>
    <trip id="34" depart="34.00" from="109021180#7" to="109021178#3"/>
    <trip id="35" depart="35.00" from="-66353405#1" to="916372306"/>
    <trip id="36" depart="36.00" from="915505196#0" to="140908238#1"/>
    <trip id="37" depart="37.00" from="279000497#1" to="14481555#6"/>
    <trip id="38" depart="38.00" from="915615577" to="188698864#1"/>
    <trip id="39" depart="39.00" from="100074408#0" to="100648334#4"/>
    <trip id="40" depart="40.00" from="261412333#1" to="101023547"/>
    <trip id="41" depart="41.00" from="263568322" to="915588439"/>
    <trip id="42" depart="42.00" from="142018803" to="100190757#0"/>
    <trip id="43" depart="43.00" from="95756609#2" to="245342184#0"/>
    <trip id="44" depart="44.00" from="-142017569#2" to="-140908898"/>
    <trip id="45" depart="45.00" from="-142018804#5" to="27937907#1"/>
    <trip id="46" depart="46.00" from="466547799#4" to="14484963"/>
    <trip id="47" depart="47.00" from="-142015819#6" to="14467402"/>
    <trip id="48" depart="48.00" from="95756609#1" to="261412325#7"/>
    <trip id="49" depart="49.00" from="917590281#3" to="915216456"/>
    <trip id="50" depart="50.00" from="-100190760#2" to="43334485"/>
    <trip id="51" depart="51.00" from="32532130" to="262067984#8"/>
    <trip id="52" depart="52.00" from="100190747#0" to="298597161#1"/>
    <trip id="53" depart="53.00" from="-142497723#0" to="183003886"/>
    <trip id="54" depart="54.00" from="14484958" to="917539229#2"/>
    <trip id="55" depart="55.00" from="915505195#1" to="101300556"/>
    <trip id="56" depart="56.00" from="208456469#5" to="-701898171#13"/>
    <trip id="57" depart="57.00" from="915612321" to="915230466"/>
    <trip id="58" depart="58.00" from="101300556" to="285256978#1"/>
    <trip id="59" depart="59.00" from="263590328#1" to="-43334493#7"/>
    <trip id="60" depart="60.00" from="43352383" to="262068618"/>
    <trip id="61" depart="61.00" from="43376169#10" to="261412333#3"/>
    <trip id="62" depart="62.00" from="-100074392#0" to="141453072#1"/>
    <trip id="63" depart="63.00" from="-100667705#1" to="916030746"/>
    <trip id="64" depart="64.00" from="915505198#1" to="84830164#0"/>
    <trip id="65" depart="65.00" from="109021178#6" to="-141453064#0"/>
    <trip id="66" depart="66.00" from="915505198#0" to="917470917"/>
    <trip id="67" depart="67.00" from="-142017313" to="23597853"/>
    <trip id="68" depart="68.00" from="-142015859#6" to="43375164#2"/>
    <trip id="69" depart="69.00" from="43352383" to="-32532496#0"/>
    <trip id="70" depart="70.00" from="183462743#4" to="262946408#4"/>
    <trip id="71" depart="71.00" from="100074408#0" to="915230472"/>
    <trip id="72" depart="72.00" from="14481510#3" to="-965996658"/>
    <trip id="73" depart="73.00" from="245337293#4" to="43334496#0"/>
    <trip id="74" depart="74.00" from="-43375164#2" to="133618021#1"/>
    <trip id="75" depart="75.00" from="95754560#2" to="32532311"/>
    <trip id="76" depart="76.00" from="14481667#1" to="25772146#1"/>
    <trip id="77" depart="77.00" from="-221891977#0" to="100420366#0"/>
    <trip id="78" depart="78.00" from="124316020" to="264689641#3"/>
    <trip id="79" depart="79.00" from="-778204605#1" to="100190757#4"/>
    <trip id="80" depart="80.00" from="-142015872" to="285250600"/>
    <trip id="81" depart="81.00" from="-773795642#8" to="915588449"/>
    <trip id="82" depart="82.00" from="915216456" to="-142017306"/>
    <trip id="83" depart="83.00" from="-915509550" to="329050883#6"/>
    <trip id="84" depart="84.00" from="-681369199#0" to="-32919813#1"/>
    <trip id="85" depart="85.00" from="916307403" to="263590293#1"/>
    <trip id="86" depart="86.00" from="183462732" to="466547799#1"/>
    <trip id="87" depart="87.00" from="680237088#2" to="-915509550"/>
    <trip id="88" depart="88.00" from="-142018100" to="170759172#1"/>
    <trip id="89" depart="89.00" from="14481510#4" to="221891977#0"/>
    <trip id="90" depart="90.00" from="39447910#0" to="32946680#0"/>
    <trip id="91" depart="91.00" from="918856196#0" to="-23597846#3"/>
    <trip id="92" depart="92.00" from="142497723#0" to="142017062#1"/>
    <trip id="93" depart="93.00" from="915219747" to="100667692#0"/>
    <trip id="94" depart="94.00" from="-43341968#1" to="183462755#5"/>
    <trip id="95" depart="95.00" from="14481510#20" to="109021180#8"/>
    <trip id="96" depart="96.00" from="-917588216#6" to="915631467"/>
    <trip id="97" depart="97.00" from="14481679#0" to="915216456"/>
    <trip id="98" depart="98.00" from="25772146#1" to="-141403636#2"/>
    <trip id="99" depart="99.00" from="965975296#1" to="84830169#2"/>
</routes>
